<?xml version="1.0" encoding="UTF-8"?>

<!-- generated on Tue May  2 00:05:09 2017 by SUMO netconvert Version 0.25.0
<?xml version="1.0" encoding="UTF-8"?>

<configuration xmlns:xsi="http://www.w3.org/2001/XMLSchema-instance" xsi:noNamespaceSchemaLocation="http://sumo.dlr.de/xsd/netconvertConfiguration.xsd">

    <input>
        <type-files value="/home/ghost/work/sumo-0.25.0//data/typemap/osmNetconvert.typ.xml"/>
        <osm-files value="map.osm"/>
    </input>

    <output>
        <output-file value="map.net.xml"/>
    </output>

    <projection>
        <proj.utm value="true"/>
    </projection>

</configuration>
-->

<net version="0.25" xmlns:xsi="http://www.w3.org/2001/XMLSchema-instance" xsi:noNamespaceSchemaLocation="http://sumo.dlr.de/xsd/net_file.xsd">

    <location netOffset="-583565.26,-4508248.67" convBoundary="0.00,0.00,2308.47,2586.68" origBoundary="-74.012390,40.710904,-73.983064,40.744099" projParameter="+proj=utm +zone=18 +ellps=WGS84 +datum=WGS84 +units=m +no_defs"/>

    <type id="highway.bridleway" priority="1" numLanes="1" speed="2.78" allow="pedestrian" oneway="1" width="2.00"/>
    <type id="highway.bus_guideway" priority="1" numLanes="1" speed="8.33" allow="bus" oneway="1"/>
    <type id="highway.cycleway" priority="1" numLanes="1" speed="5.56" allow="bicycle" oneway="0" width="1.00"/>
    <type id="highway.footway" priority="1" numLanes="1" speed="8.33" allow="pedestrian" oneway="1" width="2.00"/>
    <type id="highway.ford" priority="1" numLanes="1" speed="2.78" allow="army" oneway="0"/>
    <type id="highway.living_street" priority="3" numLanes="1" speed="2.78" disallow="tram rail_urban rail rail_electric ship" oneway="0"/>
    <type id="highway.motorway" priority="13" numLanes="2" speed="44.44" allow="private emergency authority army vip passenger hov taxi bus coach delivery truck trailer motorcycle evehicle custom1 custom2" oneway="1"/>
    <type id="highway.motorway_link" priority="12" numLanes="1" speed="22.22" allow="private emergency authority army vip passenger hov taxi bus coach delivery truck trailer motorcycle evehicle custom1 custom2" oneway="1"/>
    <type id="highway.path" priority="1" numLanes="1" speed="2.78" allow="bicycle pedestrian" oneway="1" width="2.00"/>
    <type id="highway.pedestrian" priority="1" numLanes="1" speed="8.33" allow="pedestrian" oneway="1" width="2.00"/>
    <type id="highway.primary" priority="9" numLanes="2" speed="27.78" disallow="tram rail_urban rail rail_electric ship" oneway="0"/>
    <type id="highway.primary_link" priority="8" numLanes="1" speed="22.22" disallow="tram rail_urban rail rail_electric ship" oneway="0"/>
    <type id="highway.raceway" priority="14" numLanes="2" speed="83.33" allow="vip" oneway="0"/>
    <type id="highway.residential" priority="4" numLanes="1" speed="13.89" disallow="tram rail_urban rail rail_electric ship" oneway="0"/>
    <type id="highway.secondary" priority="7" numLanes="2" speed="27.78" disallow="tram rail_urban rail rail_electric ship" oneway="0"/>
    <type id="highway.secondary_link" priority="6" numLanes="1" speed="22.22" disallow="tram rail_urban rail rail_electric ship" oneway="0"/>
    <type id="highway.service" priority="2" numLanes="1" speed="5.56" allow="delivery bicycle pedestrian" oneway="0"/>
    <type id="highway.services" priority="1" numLanes="1" speed="8.33" disallow="tram rail_urban rail rail_electric ship" oneway="0"/>
    <type id="highway.stairs" priority="1" numLanes="1" speed="1.39" allow="pedestrian" oneway="1" width="2.00"/>
    <type id="highway.step" priority="1" numLanes="1" speed="1.39" allow="pedestrian" oneway="1" width="2.00"/>
    <type id="highway.steps" priority="1" numLanes="1" speed="1.39" allow="pedestrian" oneway="1" width="2.00"/>
    <type id="highway.tertiary" priority="6" numLanes="1" speed="22.22" disallow="tram rail_urban rail rail_electric ship" oneway="0"/>
    <type id="highway.tertiary_link" priority="5" numLanes="1" speed="22.22" disallow="tram rail_urban rail rail_electric ship" oneway="0"/>
    <type id="highway.track" priority="1" numLanes="1" speed="5.56" disallow="tram rail_urban rail rail_electric ship" oneway="0"/>
    <type id="highway.trunk" priority="11" numLanes="2" speed="27.78" disallow="tram rail_urban rail rail_electric bicycle pedestrian ship" oneway="0"/>
    <type id="highway.trunk_link" priority="10" numLanes="1" speed="22.22" disallow="tram rail_urban rail rail_electric bicycle pedestrian ship" oneway="0"/>
    <type id="highway.unclassified" priority="5" numLanes="1" speed="13.89" disallow="tram rail_urban rail rail_electric ship" oneway="0"/>
    <type id="highway.unsurfaced" priority="1" numLanes="1" speed="8.33" disallow="tram rail_urban rail rail_electric ship" oneway="0"/>
    <type id="railway.light_rail" priority="15" numLanes="1" speed="27.78" allow="rail_urban" oneway="1"/>
    <type id="railway.preserved" priority="15" numLanes="1" speed="27.78" allow="rail" oneway="1"/>
    <type id="railway.rail" priority="15" numLanes="1" speed="83.33" allow="rail rail_electric" oneway="1"/>
    <type id="railway.subway" priority="15" numLanes="1" speed="27.78" allow="rail_urban" oneway="1"/>
    <type id="railway.tram" priority="15" numLanes="1" speed="13.89" allow="tram" oneway="1"/>

    <edge id=":1692433907_0" function="internal">
        <lane id=":1692433907_0_0" index="0" disallow="tram rail_urban rail rail_electric ship" speed="11.18" length="0.10" shape="1536.42,497.58 1536.42,497.58"/>
    </edge>
    <edge id=":1692433916_0" function="internal">
        <lane id=":1692433916_0_0" index="0" disallow="tram rail_urban rail rail_electric ship" speed="11.18" length="5.09" shape="1336.07,567.54 1336.94,568.65 1337.94,569.19 1339.07,569.15 1340.34,568.54"/>
    </edge>
    <edge id=":1692433916_1" function="internal">
        <lane id=":1692433916_1_0" index="0" disallow="tram rail_urban rail rail_electric ship" speed="11.18" length="6.57" shape="1336.07,567.54 1339.33,573.25"/>
        <lane id=":1692433916_1_1" index="1" disallow="tram rail_urban rail rail_electric ship" speed="11.18" length="6.57" shape="1333.21,569.18 1336.46,574.88"/>
    </edge>
    <edge id=":1692433916_3" function="internal">
        <lane id=":1692433916_3_0" index="0" disallow="tram rail_urban rail rail_electric ship" speed="11.18" length="9.69" shape="1332.21,573.81 1340.34,568.54"/>
    </edge>
    <edge id=":1692433916_4" function="internal">
        <lane id=":1692433916_4_0" index="0" disallow="tram rail_urban rail rail_electric ship" speed="11.18" length="5.05" shape="1332.21,573.81 1333.48,573.25 1334.61,573.24 1335.61,573.78 1336.46,574.88"/>
    </edge>
    <edge id=":1692433919_0" function="internal">
        <lane id=":1692433919_0_0" index="0" disallow="tram rail_urban rail rail_electric ship" speed="11.18" length="6.25" shape="1234.52,639.43 1231.20,634.14"/>
        <lane id=":1692433919_0_1" index="1" disallow="tram rail_urban rail rail_electric ship" speed="11.18" length="6.25" shape="1237.32,637.68 1234.00,632.38"/>
    </edge>
    <edge id=":1692433919_2" function="internal">
        <lane id=":1692433919_2_0" index="0" disallow="tram rail_urban rail rail_electric ship" speed="11.18" length="5.05" shape="1237.32,637.68 1236.75,636.41 1236.72,635.26 1237.23,634.24 1238.27,633.34"/>
    </edge>
    <edge id=":1692433919_3" function="internal">
        <lane id=":1692433919_3_0" index="0" disallow="tram rail_urban rail rail_electric ship" speed="11.18" length="5.04" shape="1230.24,638.46 1231.29,637.56 1231.80,636.54 1231.77,635.40 1231.20,634.14"/>
    </edge>
    <edge id=":1692433919_4" function="internal">
        <lane id=":1692433919_4_0" index="0" disallow="tram rail_urban rail rail_electric ship" speed="11.18" length="9.52" shape="1230.24,638.46 1238.27,633.34"/>
    </edge>
    <edge id=":1692433920_0" function="internal">
        <lane id=":1692433920_0_0" index="0" disallow="tram rail_urban rail rail_electric ship" speed="11.18" length="6.24" shape="1165.17,683.53 1161.84,678.26"/>
        <lane id=":1692433920_0_1" index="1" disallow="tram rail_urban rail rail_electric ship" speed="11.18" length="6.24" shape="1167.97,681.77 1164.62,676.49"/>
    </edge>
    <edge id=":1692433920_2" function="internal">
        <lane id=":1692433920_2_0" index="0" disallow="tram rail_urban rail rail_electric ship" speed="11.18" length="5.05" shape="1167.97,681.77 1167.40,680.50 1167.36,679.35 1167.86,678.33 1168.90,677.44"/>
    </edge>
    <edge id=":1692433920_3" function="internal">
        <lane id=":1692433920_3_0" index="0" disallow="tram rail_urban rail rail_electric ship" speed="11.18" length="5.03" shape="1160.89,682.58 1161.93,681.67 1162.44,680.65 1162.41,679.52 1161.84,678.26"/>
    </edge>
    <edge id=":1692433920_4" function="internal">
        <lane id=":1692433920_4_0" index="0" disallow="tram rail_urban rail rail_electric ship" speed="11.18" length="9.52" shape="1160.89,682.58 1168.90,677.44"/>
    </edge>
    <edge id=":1692433923_0" function="internal">
        <lane id=":1692433923_0_0" index="0" allow="delivery bicycle pedestrian" speed="11.18" length="0.10" shape="1118.93,750.64 1118.93,750.63"/>
    </edge>
    <edge id=":1692433923_1" function="internal">
        <lane id=":1692433923_1_0" index="0" allow="delivery bicycle pedestrian" speed="11.18" length="2.41" shape="1118.93,750.64 1118.98,749.15 1119.46,748.37"/>
    </edge>
    <edge id=":1692433923_4" function="internal">
        <lane id=":1692433923_4_0" index="0" speed="11.18" length="2.41" shape="1119.46,748.37 1120.38,748.28 1121.73,748.89"/>
    </edge>
    <edge id=":1692433923_2" function="internal">
        <lane id=":1692433923_2_0" index="0" allow="delivery bicycle pedestrian" speed="11.18" length="0.10" shape="1121.74,748.90 1121.73,748.89"/>
    </edge>
    <edge id=":1692433923_3" function="internal">
        <lane id=":1692433923_3_0" index="0" allow="delivery bicycle pedestrian" speed="11.18" length="2.41" shape="1121.74,748.90 1121.68,750.39 1121.20,751.17"/>
    </edge>
    <edge id=":1692433923_5" function="internal">
        <lane id=":1692433923_5_0" index="0" speed="11.18" length="2.41" shape="1121.20,751.17 1120.28,751.25 1118.93,750.63"/>
    </edge>
    <edge id=":1692433924_0" function="internal">
        <lane id=":1692433924_0_0" index="0" disallow="tram rail_urban rail rail_electric ship" speed="11.18" length="6.27" shape="1036.50,765.58 1033.21,760.24"/>
    </edge>
    <edge id=":1692433924_1" function="internal">
        <lane id=":1692433924_1_0" index="0" disallow="tram rail_urban rail rail_electric ship" speed="11.18" length="7.90" shape="1036.50,765.58 1036.12,764.20 1036.63,762.72 1038.02,761.15 1040.29,759.49"/>
    </edge>
    <edge id=":1692433924_2" function="internal">
        <lane id=":1692433924_2_0" index="0" allow="delivery bicycle pedestrian" speed="11.18" length="4.82" shape="1036.50,765.58 1036.55,764.09 1037.04,763.31 1037.96,763.23 1039.31,763.85"/>
    </edge>
    <edge id=":1692433924_3" function="internal">
        <lane id=":1692433924_3_0" index="0" disallow="tram rail_urban rail rail_electric ship" speed="11.18" length="5.01" shape="1036.02,758.50 1036.90,759.56 1037.90,760.07 1039.03,760.05 1040.29,759.49"/>
    </edge>
    <edge id=":1692433924_4" function="internal">
        <lane id=":1692433924_4_0" index="0" allow="delivery bicycle pedestrian" speed="11.18" length="6.28" shape="1036.02,758.50 1039.31,763.85"/>
    </edge>
    <edge id=":1692433924_5" function="internal">
        <lane id=":1692433924_5_0" index="0" disallow="tram rail_urban rail rail_electric ship" speed="11.18" length="2.69" shape="1036.02,758.50 1035.97,759.99 1035.48,760.77 1035.20,760.80"/>
    </edge>
    <edge id=":1692433924_9" function="internal">
        <lane id=":1692433924_9_0" index="0" speed="11.18" length="2.13" shape="1035.20,760.80 1034.56,760.85 1033.21,760.24"/>
    </edge>
    <edge id=":1692433924_6" function="internal">
        <lane id=":1692433924_6_0" index="0" disallow="tram rail_urban rail rail_electric ship" speed="11.18" length="5.07" shape="1032.22,764.59 1033.28,763.69 1033.79,762.66 1033.77,761.51 1033.21,760.24"/>
    </edge>
    <edge id=":1692433924_7" function="internal">
        <lane id=":1692433924_7_0" index="0" disallow="tram rail_urban rail rail_electric ship" speed="11.18" length="9.54" shape="1032.22,764.59 1040.29,759.49"/>
    </edge>
    <edge id=":1692433924_8" function="internal">
        <lane id=":1692433924_8_0" index="0" allow="delivery bicycle pedestrian" speed="11.18" length="4.90" shape="1032.22,764.59 1034.70,763.25 1036.71,762.68"/>
    </edge>
    <edge id=":1692433924_10" function="internal">
        <lane id=":1692433924_10_0" index="0" speed="11.18" length="2.99" shape="1036.71,762.68 1038.24,762.88 1039.31,763.85"/>
    </edge>
    <edge id=":1692433925_0" function="internal">
        <lane id=":1692433925_0_0" index="0" allow="delivery bicycle pedestrian" speed="11.18" length="0.10" shape="1043.69,777.31 1043.68,777.29"/>
    </edge>
    <edge id=":1692433925_1" function="internal">
        <lane id=":1692433925_1_0" index="0" allow="delivery bicycle pedestrian" speed="11.18" length="2.41" shape="1043.69,777.31 1043.72,775.82 1044.19,775.03"/>
    </edge>
    <edge id=":1692433925_4" function="internal">
        <lane id=":1692433925_4_0" index="0" speed="11.18" length="2.41" shape="1044.19,775.03 1045.11,774.93 1046.47,775.53"/>
    </edge>
    <edge id=":1692433925_2" function="internal">
        <lane id=":1692433925_2_0" index="0" allow="delivery bicycle pedestrian" speed="11.18" length="0.10" shape="1046.49,775.57 1046.47,775.53"/>
    </edge>
    <edge id=":1692433925_3" function="internal">
        <lane id=":1692433925_3_0" index="0" allow="delivery bicycle pedestrian" speed="11.18" length="2.41" shape="1046.49,775.57 1046.44,777.05 1045.95,777.84"/>
    </edge>
    <edge id=":1692433925_5" function="internal">
        <lane id=":1692433925_5_0" index="0" speed="11.18" length="2.41" shape="1045.95,777.84 1045.03,777.92 1043.68,777.29"/>
    </edge>
    <edge id=":1692433926_0" function="internal">
        <lane id=":1692433926_0_0" index="0" allow="delivery bicycle pedestrian" speed="11.18" length="0.10" shape="1053.23,792.19 1053.23,792.19"/>
    </edge>
    <edge id=":1692433926_1" function="internal">
        <lane id=":1692433926_1_0" index="0" allow="delivery bicycle pedestrian" speed="11.18" length="2.41" shape="1053.23,792.19 1053.26,790.70 1053.74,789.91"/>
    </edge>
    <edge id=":1692433926_4" function="internal">
        <lane id=":1692433926_4_0" index="0" speed="11.18" length="2.41" shape="1053.74,789.91 1054.66,789.82 1056.02,790.42"/>
    </edge>
    <edge id=":1692433926_2" function="internal">
        <lane id=":1692433926_2_0" index="0" allow="delivery bicycle pedestrian" speed="11.18" length="0.10" shape="1056.02,790.42 1056.02,790.42"/>
    </edge>
    <edge id=":1692433926_3" function="internal">
        <lane id=":1692433926_3_0" index="0" allow="delivery bicycle pedestrian" speed="11.18" length="2.41" shape="1056.02,790.42 1055.98,791.91 1055.51,792.70"/>
    </edge>
    <edge id=":1692433926_5" function="internal">
        <lane id=":1692433926_5_0" index="0" speed="11.18" length="2.41" shape="1055.51,792.70 1054.59,792.79 1053.23,792.19"/>
    </edge>
    <edge id=":1692433928_0" function="internal">
        <lane id=":1692433928_0_0" index="0" disallow="tram rail_urban rail rail_electric ship" speed="11.18" length="6.25" shape="970.19,807.63 966.88,802.33"/>
    </edge>
    <edge id=":1692433928_1" function="internal">
        <lane id=":1692433928_1_0" index="0" disallow="tram rail_urban rail rail_electric ship" speed="11.18" length="3.07" shape="970.19,807.63 969.81,806.26 970.30,804.79 970.37,804.71"/>
    </edge>
    <edge id=":1692433928_2" function="internal">
        <lane id=":1692433928_2_0" index="0" disallow="tram rail_urban rail rail_electric ship" speed="11.18" length="2.41" shape="970.19,807.63 970.23,806.14 970.71,805.35"/>
    </edge>
    <edge id=":1692433928_9" function="internal">
        <lane id=":1692433928_9_0" index="0" speed="11.18" length="4.80" shape="970.37,804.71 971.69,803.22 973.95,801.55"/>
    </edge>
    <edge id=":1692433928_10" function="internal">
        <lane id=":1692433928_10_0" index="0" speed="11.18" length="2.41" shape="970.71,805.35 971.63,805.26 972.99,805.87"/>
    </edge>
    <edge id=":1692433928_3" function="internal">
        <lane id=":1692433928_3_0" index="0" disallow="tram rail_urban rail rail_electric ship" speed="11.18" length="5.01" shape="969.68,800.58 970.56,801.63 971.57,802.14 972.70,802.12 973.95,801.55"/>
    </edge>
    <edge id=":1692433928_4" function="internal">
        <lane id=":1692433928_4_0" index="0" disallow="tram rail_urban rail rail_electric ship" speed="11.18" length="6.24" shape="969.68,800.58 972.99,805.87"/>
    </edge>
    <edge id=":1692433928_5" function="internal">
        <lane id=":1692433928_5_0" index="0" disallow="tram rail_urban rail rail_electric ship" speed="11.18" length="2.41" shape="969.68,800.58 969.63,802.07 969.15,802.85"/>
    </edge>
    <edge id=":1692433928_11" function="internal">
        <lane id=":1692433928_11_0" index="0" speed="11.18" length="2.41" shape="969.15,802.85 968.23,802.94 966.88,802.33"/>
    </edge>
    <edge id=":1692433928_6" function="internal">
        <lane id=":1692433928_6_0" index="0" disallow="tram rail_urban rail rail_electric ship" speed="11.18" length="5.05" shape="965.91,806.66 966.96,805.76 967.47,804.74 967.44,803.60 966.88,802.33"/>
    </edge>
    <edge id=":1692433928_7" function="internal">
        <lane id=":1692433928_7_0" index="0" disallow="tram rail_urban rail rail_electric ship" speed="11.18" length="9.52" shape="965.91,806.66 973.95,801.55"/>
    </edge>
    <edge id=":1692433928_8" function="internal">
        <lane id=":1692433928_8_0" index="0" disallow="tram rail_urban rail rail_electric ship" speed="11.18" length="7.86" shape="965.91,806.66 968.38,805.32 970.39,804.74 971.92,804.93 972.99,805.87"/>
    </edge>
    <edge id=":1692433929_0" function="internal">
        <lane id=":1692433929_0_0" index="0" allow="delivery bicycle pedestrian" speed="11.18" length="0.10" shape="1166.92,827.70 1166.91,827.68"/>
    </edge>
    <edge id=":1692433929_1" function="internal">
        <lane id=":1692433929_1_0" index="0" allow="delivery bicycle pedestrian" speed="11.18" length="2.41" shape="1166.92,827.70 1166.94,826.21 1167.41,825.42"/>
    </edge>
    <edge id=":1692433929_4" function="internal">
        <lane id=":1692433929_4_0" index="0" speed="11.18" length="2.41" shape="1167.41,825.42 1168.33,825.32 1169.69,825.91"/>
    </edge>
    <edge id=":1692433929_2" function="internal">
        <lane id=":1692433929_2_0" index="0" allow="delivery bicycle pedestrian" speed="11.18" length="0.10" shape="1169.71,825.94 1169.69,825.91"/>
    </edge>
    <edge id=":1692433929_3" function="internal">
        <lane id=":1692433929_3_0" index="0" allow="delivery bicycle pedestrian" speed="11.18" length="2.41" shape="1169.71,825.94 1169.67,827.42 1169.18,828.21"/>
    </edge>
    <edge id=":1692433929_5" function="internal">
        <lane id=":1692433929_5_0" index="0" speed="11.18" length="2.41" shape="1169.18,828.21 1168.27,828.29 1166.91,827.68"/>
    </edge>
    <edge id=":1692433930_0" function="internal">
        <lane id=":1692433930_0_0" index="0" allow="delivery bicycle pedestrian" speed="11.18" length="0.10" shape="1176.44,842.44 1176.44,842.44"/>
    </edge>
    <edge id=":1692433930_1" function="internal">
        <lane id=":1692433930_1_0" index="0" allow="delivery bicycle pedestrian" speed="11.18" length="2.41" shape="1176.44,842.44 1176.47,840.95 1176.94,840.16"/>
    </edge>
    <edge id=":1692433930_4" function="internal">
        <lane id=":1692433930_4_0" index="0" speed="11.18" length="2.41" shape="1176.94,840.16 1177.86,840.06 1179.22,840.66"/>
    </edge>
    <edge id=":1692433930_2" function="internal">
        <lane id=":1692433930_2_0" index="0" allow="delivery bicycle pedestrian" speed="11.18" length="0.10" shape="1179.22,840.66 1179.22,840.66"/>
    </edge>
    <edge id=":1692433930_3" function="internal">
        <lane id=":1692433930_3_0" index="0" allow="delivery bicycle pedestrian" speed="11.18" length="2.41" shape="1179.22,840.66 1179.20,842.15 1178.72,842.94"/>
    </edge>
    <edge id=":1692433930_5" function="internal">
        <lane id=":1692433930_5_0" index="0" speed="11.18" length="2.41" shape="1178.72,842.94 1177.81,843.04 1176.44,842.44"/>
    </edge>
    <edge id=":1692433932_0" function="internal">
        <lane id=":1692433932_0_0" index="0" disallow="tram rail_urban rail rail_electric ship" speed="11.18" length="6.21" shape="910.49,845.52 907.19,840.26"/>
    </edge>
    <edge id=":1692433932_1" function="internal">
        <lane id=":1692433932_1_0" index="0" disallow="tram rail_urban rail rail_electric ship" speed="11.18" length="5.02" shape="910.49,845.52 909.93,844.26 909.91,843.13 910.42,842.12 911.46,841.22"/>
    </edge>
    <edge id=":1692433932_2" function="internal">
        <lane id=":1692433932_2_0" index="0" disallow="tram rail_urban rail rail_electric ship" speed="11.18" length="5.02" shape="906.22,844.55 907.26,843.66 907.77,842.65 907.75,841.51 907.19,840.26"/>
    </edge>
    <edge id=":1692433932_3" function="internal">
        <lane id=":1692433932_3_0" index="0" disallow="tram rail_urban rail rail_electric ship" speed="11.18" length="6.21" shape="906.22,844.55 911.46,841.22"/>
    </edge>
    <edge id=":1692433933_0" function="internal">
        <lane id=":1692433933_0_0" index="0" allow="delivery bicycle pedestrian" speed="11.18" length="0.10" shape="1102.53,868.47 1102.53,868.48"/>
    </edge>
    <edge id=":1692433933_1" function="internal">
        <lane id=":1692433933_1_0" index="0" allow="delivery bicycle pedestrian" speed="11.18" length="2.41" shape="1102.53,868.47 1102.53,866.99 1102.99,866.19"/>
    </edge>
    <edge id=":1692433933_4" function="internal">
        <lane id=":1692433933_4_0" index="0" speed="11.18" length="2.41" shape="1102.99,866.19 1103.90,866.07 1105.28,866.65"/>
    </edge>
    <edge id=":1692433933_2" function="internal">
        <lane id=":1692433933_2_0" index="0" allow="delivery bicycle pedestrian" speed="11.18" length="0.10" shape="1105.28,866.65 1105.28,866.65"/>
    </edge>
    <edge id=":1692433933_3" function="internal">
        <lane id=":1692433933_3_0" index="0" allow="delivery bicycle pedestrian" speed="11.18" length="2.41" shape="1105.28,866.65 1105.28,868.13 1104.82,868.94"/>
    </edge>
    <edge id=":1692433933_5" function="internal">
        <lane id=":1692433933_5_0" index="0" speed="11.18" length="2.41" shape="1104.82,868.94 1103.91,869.05 1102.53,868.48"/>
    </edge>
    <edge id=":1692433934_0" function="internal">
        <lane id=":1692433934_0_0" index="0" allow="delivery bicycle pedestrian" speed="11.18" length="0.10" shape="1112.00,882.73 1112.05,882.80"/>
    </edge>
    <edge id=":1692433934_1" function="internal">
        <lane id=":1692433934_1_0" index="0" allow="delivery bicycle pedestrian" speed="11.18" length="2.41" shape="1112.00,882.73 1112.09,881.24 1112.59,880.47"/>
    </edge>
    <edge id=":1692433934_4" function="internal">
        <lane id=":1692433934_4_0" index="0" speed="11.18" length="2.41" shape="1112.59,880.47 1113.51,880.41 1114.85,881.06"/>
    </edge>
    <edge id=":1692433934_2" function="internal">
        <lane id=":1692433934_2_0" index="0" allow="delivery bicycle pedestrian" speed="11.18" length="0.10" shape="1114.80,880.98 1114.85,881.06"/>
    </edge>
    <edge id=":1692433934_3" function="internal">
        <lane id=":1692433934_3_0" index="0" allow="delivery bicycle pedestrian" speed="11.18" length="2.41" shape="1114.80,880.98 1114.80,882.47 1114.34,883.27"/>
    </edge>
    <edge id=":1692433934_5" function="internal">
        <lane id=":1692433934_5_0" index="0" speed="11.18" length="2.41" shape="1114.34,883.27 1113.42,883.38 1112.05,882.80"/>
    </edge>
    <edge id=":1692433935_0" function="internal">
        <lane id=":1692433935_0_0" index="0" disallow="tram rail_urban rail rail_electric ship" speed="11.18" length="5.01" shape="842.63,881.20 843.53,882.25 844.54,882.76 845.68,882.73 846.92,882.17"/>
    </edge>
    <edge id=":1692433935_1" function="internal">
        <lane id=":1692433935_1_0" index="0" disallow="tram rail_urban rail rail_electric ship" speed="11.18" length="6.21" shape="842.63,881.20 845.96,886.45"/>
    </edge>
    <edge id=":1692433935_2" function="internal">
        <lane id=":1692433935_2_0" index="0" disallow="tram rail_urban rail rail_electric ship" speed="11.18" length="6.21" shape="841.67,885.48 846.92,882.17"/>
    </edge>
    <edge id=":1692433935_3" function="internal">
        <lane id=":1692433935_3_0" index="0" disallow="tram rail_urban rail rail_electric ship" speed="11.18" length="5.01" shape="841.67,885.48 842.93,884.92 844.06,884.90 845.07,885.41 845.96,886.45"/>
    </edge>
    <edge id=":1692433936_0" function="internal">
        <lane id=":1692433936_0_0" index="0" disallow="tram rail_urban rail rail_electric ship" speed="11.18" length="9.50" shape="1128.74,898.53 1120.70,903.60"/>
    </edge>
    <edge id=":1692433936_1" function="internal">
        <lane id=":1692433936_1_0" index="0" allow="delivery bicycle pedestrian" speed="11.18" length="7.94" shape="1128.74,898.53 1126.25,899.86 1124.23,900.41 1122.69,900.18 1121.63,899.16"/>
    </edge>
    <edge id=":1692433936_2" function="internal">
        <lane id=":1692433936_2_0" index="0" disallow="tram rail_urban rail rail_electric ship" speed="11.18" length="7.90" shape="1124.48,897.49 1124.84,898.89 1124.33,900.38 1122.95,901.95 1120.70,903.60"/>
    </edge>
    <edge id=":1692433936_3" function="internal">
        <lane id=":1692433936_3_0" index="0" allow="delivery bicycle pedestrian" speed="11.18" length="4.82" shape="1124.48,897.49 1124.39,898.98 1123.89,899.75 1122.97,899.81 1121.63,899.16"/>
    </edge>
    <edge id=":1692433938_0" function="internal">
        <lane id=":1692433938_0_0" index="0" disallow="tram rail_urban rail rail_electric ship" speed="11.18" length="6.23" shape="781.35,926.89 778.02,921.62"/>
    </edge>
    <edge id=":1692433938_1" function="internal">
        <lane id=":1692433938_1_0" index="0" disallow="tram rail_urban rail rail_electric ship" speed="11.18" length="5.03" shape="781.35,926.89 780.78,925.63 780.75,924.49 781.26,923.48 782.31,922.59"/>
    </edge>
    <edge id=":1692433938_2" function="internal">
        <lane id=":1692433938_2_0" index="0" disallow="tram rail_urban rail rail_electric ship" speed="11.18" length="5.05" shape="777.06,925.97 778.10,925.05 778.61,924.02 778.58,922.88 778.02,921.62"/>
    </edge>
    <edge id=":1692433938_3" function="internal">
        <lane id=":1692433938_3_0" index="0" disallow="tram rail_urban rail rail_electric ship" speed="11.18" length="6.24" shape="777.06,925.97 782.31,922.59"/>
    </edge>
    <edge id=":1692433939_0" function="internal">
        <lane id=":1692433939_0_0" index="0" disallow="tram rail_urban rail rail_electric ship" speed="11.18" length="5.01" shape="838.83,1018.08 837.94,1017.03 836.94,1016.52 835.81,1016.55 834.55,1017.11"/>
    </edge>
    <edge id=":1692433939_1" function="internal">
        <lane id=":1692433939_1_0" index="0" disallow="tram rail_urban rail rail_electric ship" speed="11.18" length="6.21" shape="838.83,1018.08 835.53,1012.83"/>
    </edge>
    <edge id=":1692433940_0" function="internal">
        <lane id=":1692433940_0_0" index="0" disallow="tram rail_urban rail rail_electric ship" speed="11.18" length="5.00" shape="869.98,1067.85 869.09,1066.80 868.08,1066.29 866.95,1066.32 865.70,1066.87"/>
    </edge>
    <edge id=":1692433940_1" function="internal">
        <lane id=":1692433940_1_0" index="0" disallow="tram rail_urban rail rail_electric ship" speed="11.18" length="6.21" shape="869.98,1067.85 866.68,1062.59"/>
    </edge>
    <edge id=":1692433940_2" function="internal">
        <lane id=":1692433940_2_0" index="0" disallow="tram rail_urban rail rail_electric ship" speed="11.18" length="6.21" shape="870.95,1063.56 865.70,1066.87"/>
    </edge>
    <edge id=":1692433940_3" function="internal">
        <lane id=":1692433940_3_0" index="0" disallow="tram rail_urban rail rail_electric ship" speed="11.18" length="5.01" shape="870.95,1063.56 869.70,1064.12 868.57,1064.15 867.56,1063.64 866.68,1062.59"/>
    </edge>
    <edge id=":1692433941_0" function="internal">
        <lane id=":1692433941_0_0" index="0" disallow="tram rail_urban rail rail_electric ship" speed="11.18" length="6.21" shape="912.96,1136.21 909.66,1130.96"/>
    </edge>
    <edge id=":1692433941_1" function="internal">
        <lane id=":1692433941_1_0" index="0" disallow="tram rail_urban rail rail_electric ship" speed="11.18" length="5.00" shape="912.96,1136.21 912.40,1134.95 912.38,1133.82 912.89,1132.82 913.94,1131.93"/>
    </edge>
    <edge id=":1692433941_2" function="internal">
        <lane id=":1692433941_2_0" index="0" disallow="tram rail_urban rail rail_electric ship" speed="11.18" length="5.00" shape="908.68,1135.23 909.73,1134.34 910.24,1133.34 910.21,1132.21 909.66,1130.96"/>
    </edge>
    <edge id=":1692433941_3" function="internal">
        <lane id=":1692433941_3_0" index="0" disallow="tram rail_urban rail rail_electric ship" speed="11.18" length="6.21" shape="908.68,1135.23 913.94,1131.93"/>
    </edge>
    <edge id=":1692433942_0" function="internal">
        <lane id=":1692433942_0_0" index="0" disallow="tram rail_urban rail rail_electric ship" speed="11.18" length="6.21" shape="954.23,1201.54 950.92,1196.29"/>
    </edge>
    <edge id=":1692433942_1" function="internal">