<?xml version="1.0" encoding="UTF-8"?>

<!-- generated on Sun Jul  2 15:12:11 2017 by SUMO duarouter Version 0.25.0
<?xml version="1.0" encoding="UTF-8"?>

<configuration xmlns:xsi="http://www.w3.org/2001/XMLSchema-instance" xsi:noNamespaceSchemaLocation="http://sumo.dlr.de/xsd/duarouterConfiguration.xsd">

    <input>
        <net-file value="map.net.xml"/>
        <trip-files value="trips.trips.xml"/>
    </input>

    <output>
        <output-file value="map.rou.xml"/>
    </output>

    <processing>
        <ignore-errors value="true"/>
    </processing>

    <time>
        <begin value="0"/>
        <end value="115.0"/>
    </time>

    <report>
        <no-warnings value="true"/>
        <no-step-log value="true"/>
    </report>

</configuration>
-->

<routes xmlns:xsi="http://www.w3.org/2001/XMLSchema-instance" xsi:noNamespaceSchemaLocation="http://sumo.dlr.de/xsd/routes_file.xsd">
    <vehicle id="0" depart="0.00">
        <route edges="-5672922#0 5672922#0 5672922#1 46607937#0 46607937#1 46607937#2 433124968#2 433124968#3 433124968#4 433124968#5 433124968#6 433124968#7 433124968#8 433124968#9 433124968#10 5670087#0 5670087#1 5670087#2 5670087#3 420522443#0 420522443#1 420522443#2 5669953#0 480112479"/>
    </vehicle>
    <vehicle id="1" depart="1.00">
        <route edges="5670171#1 5670171#2 5670171#3 5670171#4 5672159#1 5672159#2 5672159#3 5672159#4 5672159#5 467222844#3 467222844#4 420598318 467222802#0 467222802#1 467222802#2 467222812#1 467222812#2 467222812#3 467222812#4 467222812#5 433124996#0 433124996#1 433124996#2 157012386#0 157012386#1 157012386#2 439933948#0 439933948#1 181546837#2"/>
    </vehicle>
    <vehicle id="2" depart="2.00">
        <route edges="5670836#6 5670836#7 5670836#8 196117091#0 196117091#1 196117091#2 -420522443#2 -420522443#1 -420522443#0 -5670087#3 -5670087#2 -5670087#1 -5670087#0 5670651#0 5670651#1 5670651#2 5673089#0 5673089#1 5673089#2 5673089#3"/>
    </vehicle>
    <vehicle id="4" depart="4.00">
        <route edges="25162679#6 5672896#8 5670924#1 421825692#0 421825692#1 421825692#2 421825692#3 421825692#4 421825692#5 464522037#0 420526338#0"/>
    </vehicle>
    <vehicle id="5" depart="5.00">
        <route edges="5670836#8 196117091#0 196117091#1 196117091#2 5669953#0 5669953#1 5669953#2 5669953#3 5669953#4 5669953#5 5669953#6 467222844#0 467222844#1 467222844#2 467222844#3 467222844#4 420598318 467222802#0 467222802#1 467222802#2 467222812#1 467222812#2 467222812#3 467222812#4 467222812#5 433124996#0 433124996#1 433124996#2 157012386#0 157012386#1 157012386#2 439933948#0 439933948#1 439933948#2 439933948#3 5670792#0 5670792#1"/>
    </vehicle>
    <vehicle id="6" depart="6.00">
        <route edges="5672912#1 420895282#0 420895282#1 420895282#2 420895282#3 420895278 125479715#0 125479715#1 420895279 420895283#0 5673052#0 5673052#1 5673052#2 5673052#3 5669953#1"/>
    </vehicle>
    <vehicle id="7" depart="7.00">
        <route edges="46608946#3 46608946#4 5673052#2 350612242 5669953#2 5669953#3 5669953#4 5669953#5 5669953#6 25199402#0 25199402#1 25199402#2 25199402#3 25199402#4 25199402#5 25199402#6 25199402#7 25199402#8 25199402#9 5673619#0 5673619#1 5673619#2 5673619#3 5672040#0 5672040#1 5672040#2 5672040#3 5672040#4 5672040#5 5672040#6 5672040#7 5672040#8 5672040#9 5672040#10 5672040#11 5673614 352705238#0 352705238#1 352705238#2 352705238#3 352705238#4 464522037#4 464522037#5 5672625#0 5672625#1 40709927"/>
    </vehicle>
    <vehicle id="8" depart="8.00">
        <route edges="5670814#5 157012386#4 481403101 25199870#0 25199870#1 25199870#2 25199870#3 25199870#4 25199870#5"/>
    </vehicle>
    <vehicle id="9" depart="9.00">
        <route edges="195743341#5 195743341#6 439933929 68674966#0 68674966#1 24264070#0 24264070#1 24264070#2 157012398#0 157012398#1 157012398#2 157012398#3 157012398#4 157012398#5 157012387#0 157012387#1 157012387#2 157012387#3 439933948#0 439933948#1 439933948#2 439933948#3 5670792#0 5670792#1 46139034#2 46139034#3 46350693#2 46350693#3"/>
    </vehicle>
    <vehicle id="10" depart="10.00">
        <route edges="46610725#2 46610725#3 467222844#3 467222844#4 420598318 467222802#0 467222802#1 467222802#2 467222812#1 467222812#2 467222812#3 5669842#0"/>
    </vehicle>
    <vehicle id="11" depart="11.00">
        <route edges="5672607#1 420522444#0 420522444#1 195743555#0 195743555#1 195743555#2 480112475#0 480112475#1 5672535#0 5672535#1 5672535#2 5672535#3"/>
    </vehicle>
    <vehicle id="12" depart="12.00">
        <route edges="22927287#0 46171876#5 480112484 116672642#0 116672642#1 5672922#0 5672922#1 46607937#0 46607937#1 46607937#2 433124968#2 433124968#3 433124968#4 433124968#5 433124968#6 433124968#7 433124968#8 5670171#1 5670171#2 5670171#3 5670171#4 5672159#1"/>
    </vehicle>
    <vehicle id="13" depart="13.00">
        <route edges="5672607#0 5672607#1 195743341#4 195743341#5 195743341#6 439933929 68674966#0 68674966#1 24264070#0 24264070#1 24264070#2 157012398#0 157012398#1 157012398#2 157012398#3 157012398#4 157012398#5 157012387#0 157012387#1 157012387#2 157012387#3 439933948#0 439933948#1 439933948#2 439933948#3 5670792#0 5670792#1"/>
    </vehicle>
    <vehicle id="15" depart="15.00">
        <route edges="5669993#1 46610726#3 420895282#2 420895282#3 420895278 125479715#0 125479715#1 420895279"/>
    </vehicle>
    <vehicle id="16" depart="16.00">
        <route edges="5671459#1 68668541#5 68668541#6 68668541#7 195743341#0 195743341#1 195743341#2 195743341#3 195743341#4 195743341#5 195743341#6 439933929 68674966#0 68674966#1 -352705236#2 -352705236#1 352705236#1"/>
    </vehicle>
    <vehicle id="17" depart="17.00">
        <route edges="157012397 157012389 157012393 -317400962#1 -317400962#0 420352250#2 420352247 5671608#0 5671608#1 5671608#2 439933948#1 181546837#2"/>
    </vehicle>
    <vehicle id="18" depart="18.00">
        <route edges="226193933#13 226193933#14 468414632#1 480112484 116672642#0 116672642#1 5673342#0 5673342#1 46139034#0 46350694#2 194923810#3 433442259 433394647#0 433394647#1 46139045 452339699#0 452339699#1 452339699#2"/>
    </vehicle>
    <vehicle id="19" depart="19.00">
        <route edges="5671608#2 439933948#1 181546837#2 181546837#3 181546837#4 321993366#1 5672138#0 5672138#1"/>
    </vehicle>
    <vehicle id="20" depart="20.00">
        <route edges="5673102#0 5673102#1 5673102#2 125479715#1 420895279 420895283#0 5673052#0 5673052#1 5673052#2 350612242 164420607#0"/>
    </vehicle>
    <vehicle id="21" depart="21.00">
        <route edges="467222812#4 467222812#5 -5672922#1 420530114#2 420530114#3 239988110#0 239988110#1 239988110#2 239988110#3 239988110#4 467222828#3 125479715#0 125479715#1 420895279 420895283#0 420895283#1 420895280 480112478#0"/>
    </vehicle>
    <vehicle id="22" depart="22.00">
        <route edges="5671007 226193933#8 226193933#9 5673102#1 5673102#2 125479715#1 420895279 420895283#0 5673052#0 5673052#1 46608946#5 5671668#2"/>
    </vehicle>
    <vehicle id="23" depart="23.00">
        <route edges="5670897#6 5670897#7 5670814#7 5670814#8 5672040#3 5672040#4 5672040#5 5672040#6 5672040#7 5672040#8 5672040#9 5672040#10 5672040#11 5673614 352705238#0 352705238#1 352705238#2 352705238#3 352705238#4 5673093#0 5673093#1 5673093#2 5673093#3 5673093#4"/>
    </vehicle>
    <vehicle id="24" depart="24.00">
        <route edges="321993367#0 321993367#1 5670814#3 181546837#3 181546837#4 321993366#1 5672138#0 5672138#1 5672138#2 5670897#5 5670897#6"/>
    </vehicle>
    <vehicle id="25" depart="25.00">
        <route edges="5669978#0 5669978#1 5669978#2 5670897#0 5670897#1 5670897#2 5670897#3 5670897#4 5670897#5 5670897#6 5670897#7 5670897#8 157012387#2 157012387#3 439933948#0 433398367 433394637#0 433394637#1 5671603#0 5671603#1 5671603#2 420530114#0 420530114#1 420530114#2 420530114#3 239988110#0 239988110#1 239988110#2 46610726#2 46610726#3 420895282#2 46610725#0"/>
    </vehicle>
    <vehicle id="26" depart="26.00">
        <route edges="420530114#0 420530114#1 420530114#2 420530114#3 239988110#0 239988110#1 239988110#2 239988110#3 239988110#4 467222828#3 125479715#0 216959248 5670044#6 5670044#7"/>
    </vehicle>
    <vehicle id="27" depart="27.00">
        <route edges="321993366#0 321993366#1 5672138#0 5672138#1"/>
    </vehicle>
    <vehicle id="29" depart="29.00">
        <route edges="474635898#0 474635898#1 489375011#0 489375011#1 489375011#2 -195743555#3 -195743555#2 -195743555#1 -195743555#0 5669953#0 5669953#1 5669953#2 5669953#3 5669953#4"/>
    </vehicle>
    <vehicle id="30" depart="30.00">
        <route edges="5670454 5670044#0 5670044#1 5670044#2 5670044#3 5670044#4 5670044#5 5670044#6 5670044#7 5670044#8 5670044#9 467222812#0 467222812#1 467222812#2 467222812#3 467222812#4 467222812#5 433124996#0 433124996#1 433124996#2 157012386#0 157012386#1 157012386#2 439933948#0"/>
    </vehicle>
    <vehicle id="31" depart="31.00">
        <route edges="5670836#6 5670836#7 5670836#8 196117091#0 196117091#1 196117091#2 -420522443#2 -420522443#1 -420522443#0 195743556#0 195743556#1 195743556#2 195743556#3 195743341#5 5668989"/>
    </vehicle>
    <vehicle id="33" depart="33.00">
        <route edges="25199402#4 25199402#5 25199402#6 25199402#7 25199402#8 25199402#9 5673619#0 5673619#1 5673619#2"/>
    </vehicle>
    <vehicle id="34" depart="34.00">
        <route edges="439933929 68674966#0 68674966#1 24264070#0 24264070#1 24264070#2 157012398#0 157012398#1 157012398#2 157012398#3 157012398#4 157012398#5 5672040#0 5672040#1 5672040#2 5672040#3 5672040#4 5672040#5 5672040#6 5672040#7 5672040#8 5672040#9 5672040#10"/>
    </vehicle>
    <vehicle id="35" depart="35.00">
        <route edges="5670897#0 5670897#1 5670897#2 5670897#3 5670897#4 481047237#0 481047237#1 5672040#9 5672040#10 5672040#11 5671743#0 5671743#1 5671743#2 5671743#3 5671743#4 5671743#5 5672896#0 5672896#1 5672896#2 5672896#3 5672896#4 5672896#5 5672896#6 5671429#1 5671429#2 5671429#3 5671429#4 5671429#5"/>
    </vehicle>
    <vehicle id="36" depart="36.00">
        <route edges="25199870#1 321993367#1 321993367#2 5670792#0 194923810#2 194923810#3 433442259 433394647#0 433394647#1 46139045 452339699#0 452339699#1 452339699#2 452339699#3 452339699#4 433124968#0 433124968#1 433124968#2 433124968#3 433124968#4 433124968#5 433124968#6 433124968#7 433124968#8 433124968#9 433124968#10 127693102#0 127693102#1 127693102#2 451905565#0 451905565#1 451905565#2 451905565#3 451905565#4 451905565#5 451905565#6 -5672434 5672434"/>
    </vehicle>
    <vehicle id="37" depart="37.00">
        <route edges="46607937#1 46607937#2 433124968#2 433124968#3 433124968#4 433124968#5 433124968#6 433124968#7 433124968#8 5670171#1 5670171#2 5670171#3 5670171#4 5672159#1 5672159#2 5672159#3 5672159#4 5672159#5 467222844#3 467222844#4 420598318 467222802#0 467222802#1 467222802#2 467222812#1 467222812#2 467222812#3"/>
    </vehicle>
    <vehicle id="39" depart="39.00">
        <route edges="-5672434 195743341#0 195743341#1 5671429#0"/>
    </vehicle>
    <vehicle id="40" depart="40.00">
        <route edges="5673089#0 5672896#3 5671663#3 5668989 24264114#0 24264114#1 5670087#2 5670087#3 420522443#0 420522443#1 420522443#2 195743555#0 195743555#1 195743555#2 480112475#0 480112475#1 5672535#0 5672535#1 5672535#2 196117028#2 5670012#2 474635899#0"/>
    </vehicle>
    <vehicle id="43" depart="43.00">
        <route edges="-5670924#0 195743341#0 195743341#1 195743341#2 195743341#3 195743341#4 195743341#5 195743341#6 439933929"/>
    </vehicle>
    <vehicle id="45" depart="45.00">
        <route edges="468414632#1 480112484 116672642#0 116672642#1 5672922#0 5672922#1 46607937#0 46607937#1 46607937#2 433124968#2 433124968#3 433124968#4 433124968#5 5673619#0 5673619#1 5673619#2 5673619#3 5672040#0 5672040#1 5672040#2 5672040#3 5672040#4 5672040#5 5672040#6 5672040#7 5672040#8 5672040#9 5672040#10 5672040#11 5671743#0 5671743#1 5671743#2 5671743#3 5671743#4 5671743#5 5672896#0 5672896#1 5672896#2 5672896#3 5672896#4 5672896#5 5672896#6 5672896#7 5672896#8 -5670924#0"/>
    </vehicle>
    <vehicle id="46" depart="46.00">
        <route edges="5672073#0 46608946#4 5673052#2 350612242 164420607#0 164420607#1 164420607#2 5672159#0 5672159#1"/>
    </vehicle>
    <vehicle id="47" depart="47.00">
        <route edges="480112476#1 -195743555#1 -195743555#0 5671668#0 5671668#1 46608946#6 5670941#1 46610734#0"/>
    </vehicle>
    <vehicle id="48" depart="48.00">
        <route edges="46610727#0 46610727#1 480112483 467222812#3 5669842#0 5669842#1 25199402#8 25199402#9 433124968#6 433124968#7 433124968#8 433124968#9 433124968#10 127693102#0 127693102#1 127693102#2 451905565#0 451905565#1 451905565#2 451905565#3 451905565#4 451905565#5 451905565#6 -5672434"/>
    </vehicle>
    <vehicle id="49" depart="49.00">
        <route edges="-157012397 -157012391 -157012395 5670897#4 481047237#0 481047237#1 5672040#9 5672040#10 5672040#11 5671743#0 5671743#1 5671743#2 5671743#3 5671743#4 5671743#5 5672896#0 5672896#1 5672896#2 5673089#1 5673089#2 5673089#3 464522037#0"/>
    </vehicle>
    <vehicle id="50" depart="50.00">
        <route edges="5670087#3 -5670087#3 -5670087#2 -5670087#1 -5670087#0 5670651#0 5670651#1 5671799#0 5671799#1 5671799#2 157012398#0 157012398#1 157012398#2 157012398#3 157012398#4 157012398#5 5672040#0 5672040#1 5672040#2 5672040#3 5672040#4 5672040#5 5672040#6 5672040#7 5672040#8 -481047237#1 -481047237#0 -5672138#2 -5672138#1 157012386#6 -157012393 -157012389 -157012397"/>
    </vehicle>
    <vehicle id="51" depart="51.00">
        <route edges="195743556#1 195743556#2 451905565#2 451905565#3 420522444#1 5671668#0 5671668#1"/>
    </vehicle>
    <vehicle id="52" depart="52.00">
        <route edges="25162679#0 25162679#1 25162679#2 25162679#3 25162679#4 25162679#5 25162679#6 25162679#7 195743341#1 195743341#2 195743341#3 195743341#4 195743341#5 195743341#6 439933929 68674966#0 68674966#1 24264070#0 24264070#1 24264070#2 157012398#0 157012398#1 157012398#2 157012398#3 157012398#4 157012398#5 157012387#0 157012387#1 157012387#2 157012387#3 439933948#0 439933948#1 439933948#2 439933948#3 5670792#0 5670792#1 5670792#2"/>
    </vehicle>
    <vehicle id="53" depart="53.00">
        <route edges="-5670178 68674966#0 68674966#1 24264070#0 24264070#1 24264070#2 5670171#0 5670171#1 5670171#2 5670170#0 5670170#1 24264114#8 46608946#0 46608946#1 46608946#2 46608946#3 5672073#1 5672073#2 420895283#0 420895283#1 420895280 420895285#0 420895285#1 5670454 159657620"/>
    </vehicle>
    <vehicle id="54" depart="54.00">
        <route edges="5670792#2 420809419#3 420809419#4 439933945#0 439933945#1 420895282#0 420895282#1 420895282#2 420895282#3 420895278 125479715#0 125479715#1 420895279 420895283#0 420895283#1 420895280 420895285#0 420895285#1"/>
    </vehicle>
    <vehicle id="56" depart="56.00">
        <route edges="-420522443#2 -420522443#1 480112480#0 480112480#1 5669953#3 5669953#4 5669953#5 5669953#6 467222828#0 467222828#1"/>
    </vehicle>
    <vehicle id="57" depart="57.00">
        <route edges="24264070#1 24264070#2 157012398#0 157012398#1 157012398#2 157012398#3 157012398#4 157012398#5 5672040#0 5672040#1 5672040#2 5672040#3 5672040#4 5672040#5 5672040#6 5672040#7 5672040#8 5672040#9 5672040#10 5672040#11 5671743#0 5671743#1 5671743#2 5671743#3 5671743#4 5671743#5 5672896#0 5672896#1 5672896#2 5672896#3 5672896#4 5672896#5 5672896#6 5672896#7 25162679#7"/>
    </vehicle>
    <vehicle id="58" depart="58.00">
        <route edges="181546837#3 25199870#1 321993367#1 321993367#2 5670792#0 5670792#1"/>
    </vehicle>
    <vehicle id="59" depart="59.00">
        <route edges="5671668#3 420895285#0 420895285#1 5670454 159657620 480112476#0 480112476#1 474635905#0 474635905#1 474635905#2 474635905#3 5671429#0 5672896#7 5672896#8 -5670924#0"/>
    </vehicle>
    <vehicle id="60" depart="60.00">
        <route edges="157012386#2 157012386#3 5670814#6 5670814#7 5670814#8 5672040#3 5672040#4 5672040#5 5672040#6 5672040#7 5672040#8 5672040#9 5672040#10 5672040#11 5671743#0 5671743#1 5671743#2 5671743#3 5671743#4 5671743#5 5672896#0 5672896#1 5672896#2 5672896#3 5672896#4 5672896#5"/>
    </vehicle>
    <vehicle id="61" depart="61.00">
        <route edges="5669953#3 5669953#4 5669953#5 5669953#6 25199402#0 25199402#1 25199402#2 25199402#3 25199402#4 25199402#5 25199402#6 25199402#7 25199402#8 25199402#9 5673619#0 5673619#1 5673619#2 5673619#3 5672040#0 5672040#1 5672040#2 5672040#3 5672040#4 5672040#5 5672040#6 5672040#7 5672040#8 5672040#9 5672040#10 5672040#11 5673614 352705238#0 352705238#1 352705238#2 352705238#3 352705238#4 464522037#4 464522037#5 5672625#0 5669837#1 -5669837#1"/>
    </vehicle>
    <vehicle id="62" depart="62.00">
        <route edges="25162679#0 25162679#1 25162679#2 25162679#3 25162679#4 25162679#5 421825692#1 421825692#2 421825692#3 421825692#4 421825692#5 464522037#0 464522037#1 464522037#2 5672910#0 25199883#2 25199883#3 25199883#4 5670897#1 5670897#2 5670897#3 157012395 157012391 157012397 157012389 157012393 -317400962#1 -317400962#0 420352250#2 420352247 5671608#0 25199870#0 25199870#1 25199870#2"/>
    </vehicle>
    <vehicle id="63" depart="63.00">
        <route edges="157012398#4 157012398#5 5672040#0 5672040#1 5672040#2 5672040#3 5672040#4 5672040#5 5672040#6 5672040#7 5672040#8 5672040#9 5672040#10 5672040#11 5673614 352705238#0 352705238#1 352705238#2 352705238#3 25199883#3 25199883#4 5670897#1 5670897#2 5670897#3 157012395 -157012395"/>
    </vehicle>
    <vehicle id="64" depart="64.00">
        <route edges="157012386#6 -157012393 -157012389 -157012397 -157012391 -157012395 5670897#4 5670897#5 5670897#6 5670488 481403101"/>
    </vehicle>
    <vehicle id="65" depart="65.00">
        <route edges="239988110#1 239988110#2 239988110#3 46610725#1 5670044#8 5670044#9 46610727#0 46610727#1 46610727#2 420530113#0 420530113#1 5672922#0"/>
    </vehicle>
    <vehicle id="66" depart="66.00">
        <route edges="5670171#0 433124968#9 433124968#10 127693102#0 127693102#1 127693102#2 451905565#0 451905565#1 451905565#2 451905565#3 451905565#4 451905565#5 451905565#6 -5672434 5670924#0"/>
    </vehicle>
    <vehicle id="67" depart="67.00">
        <route edges="5670451#0 5670451#1 5670451#2 474635896 474635900 474635898#0 474635898#1 489375011#0 489375011#1 489375011#2 -195743555#3 -195743555#2 474635905#0 474635905#1 451905565#5 5669806#1"/>
    </vehicle>
    <vehicle id="68" depart="68.00">
        <route edges="25162679#7 5669806#0 5669806#1 5669806#2 -195743555#3 480112475#0 480112475#1 5672535#0 5672535#1 474635899#1 474635901 474635902 474635903"/>
    </vehicle>
    <vehicle id="69" depart="69.00">
        <route edges="-5672138#1 5672138#1 5672138#2 5670897#5 5670897#6 5670897#7 5670897#8 5670897#9 5670897#10 5670897#11 433124968#3 433124968#4 433124968#5 433124968#6 433124968#7 433124968#8 433124968#9 433124968#10 5670087#0 5670087#1 5670087#2 5670087#3 420522443#0 420522443#1 420522443#2 195743555#0 195743555#1 474635905#0 474635905#1"/>
    </vehicle>
    <vehicle id="70" depart="70.00">
        <route edges="5670897#1 5670897#2 5670897#3 5670897#4 481047237#0 481047237#1 5672040#9 5672040#10 5672040#11 5671743#0 5671743#1 5671743#2 5671743#3 5671743#4 5671743#5 5672896#0 5672896#1 5672896#2 5672896#3 5672896#4 5672896#5 5672607#1 420522444#0"/>
    </vehicle>
    <vehicle id="71" depart="71.00">
        <route edges="5670924#1 421825692#0 421825692#1 421825692#2 421825692#3 421825692#4 421825692#5 464522037#0 464522037#1 464522037#2 464522037#3 5673093#0 5673093#1 5673093#2 5673093#3"/>
    </vehicle>
    <vehicle id="72" depart="72.00">
        <route edges="420809419#3 420809419#4 439933945#0 439933945#1 420895282#0 420895282#1 420895282#2 420895282#3 420895278 125479715#0 125479715#1 420895279 420895283#0 420895283#1 420895280 480112478#0 480112478#1 226193933#6 226193933#7"/>
    </vehicle>
    <vehicle id="73" depart="73.00">
        <route edges="195743341#0 195743341#1 5671429#0 5671429#1 421825692#2 421825692#3 421825692#4 5671663#0"/>
    </vehicle>
    <vehicle id="74" depart="74.00">
        <route edges="5672434 -5672434 195743341#0 195743341#1 195743341#2 195743341#3 195743341#4 195743341#5 195743341#6 439933929 68674966#0 68674966#1 -352705236#2 -352705236#1 352705236#1"/>
    </vehicle>
    <vehicle id="77" depart="77.00">
        <route edges="5672040#4 5672040#5 5672040#6 5672040#7 5672040#8 5672040#9 5672040#10 5672040#11 5671743#0 5671743#1 5671743#2 5671743#3 5671743#4 5671743#5 5672896#0 5672896#1 5672896#2 5672896#3 5672896#4 5672896#5 5672896#6 5672896#7 5672896#8 -5670924#0 5672434"/>
    </vehicle>
    <vehicle id="78" depart="78.00">
        <route edges="474635902 480112477#1 439933935#0 439933935#1 439933935#2 452492203 489375011#1 489375011#2 -195743555#3 195743555#3"/>
    </vehicle>
    <vehicle id="79" depart="79.00">
        <route edges="5670897#3 5670897#4 481047237#0 481047237#1 5672040#9 5672040#10 5672040#11 5671743#0 5671743#1 5671743#2 5671743#3 5671743#4 5671743#5 5672896#0 5672896#1 5672896#2 5672896#3 5672896#4 5669962#1 5669962#2 5669962#3 5669962#4 5669962#5 5669962#6"/>
    </vehicle>
    <vehicle id="80" depart="80.00">
        <route edges="464522037#4 5670897#0 5670897#1 5670897#2 5670897#3 5670897#4 481047237#0 481047237#1 5672040#9 5672040#10 5672040#11 5671743#0 5671743#1 5671743#2 5671743#3 5671743#4 5671743#5 5672896#0 5672896#1 5672896#2 5672896#3 5672896#4 5669962#1 421825692#4 5671663#0 5671663#1 5671663#2"/>
    </vehicle>
    <vehicle id="81" depart="81.00">
        <route edges="474634621 474635900 474635897#0 5672535#1 474635899#1 474635899#2 474635904 196117032 5670044#0 5670044#1 5670044#2 5670044#3 5673052#1 5673052#2"/>
    </vehicle>
    <vehicle id="82" depart="82.00">
        <route edges="46608946#3 46608946#4 46608946#5 46608946#6 46608946#7 46608946#8 480112475#1 5672535#0 5672535#1 5672535#2 196117028#2 196117028#3"/>
    </vehicle>
    <vehicle id="83" depart="83.00">
        <route edges="5670897#9 5670897#10 5670897#11 433124968#3 433124968#4 433124968#5 5673619#0 5673619#1 5673619#2 5673619#3 157012387#0 157012387#1 157012387#2 157012387#3 439933948#0 439933948#1 439933948#2 439933948#3 5670792#0 5670792#1 46139034#2"/>
    </vehicle>
    <vehicle id="84" depart="84.00">
        <route edges="480112478#1 226193933#6 46431823#1 46431823#2 5673052#0 5670044#4 5670044#5 216959250#0 216959250#1 5669953#4 5669953#5 5669953#6 25199402#0 25199402#1 25199402#2 25199402#3 25199402#4 25199402#5 25199402#6 25199402#7 25199402#8 25199402#9 5673619#0 5673619#1 5673619#2 5673619#3 5672040#0 5672040#1 5672040#2 5672040#3 5672040#4 5672040#5 5672040#6 5672040#7 5672040#8 5672040#9 5672040#10 5672040#11 5673614 352705238#0 352705238#1 352705238#2 352705238#3 352705238#4 464522037#4 464522037#5 5672625#0 5669837#1 5672334"/>
    </vehicle>
    <vehicle id="86" depart="86.00">
        <route edges="5670836#5 5670836#6 5670836#7 5670836#8 196117091#0 196117091#1 196117091#2 5669953#0 5669953#1 5669953#2 5669953#3 5669953#4 5669953#5 5669953#6 467222844#0 467222844#1 467222844#2 467222844#3 467222844#4 420598318 420598323#0 420598323#1 46610727#0 46610727#1 46610727#2 420530113#0 5672988 5672912#0 5672912#1 420895282#0 5672510#0"/>
    </vehicle>
    <vehicle id="87" depart="87.00">
        <route edges="-157012396 157012396 157012388 157012390 5670897#3 5670897#4 5670897#5 5670897#6 5670897#7 5670897#8 5670897#9 5670897#10 5670897#11 433124968#3 433124968#4 433124968#5 433124968#6 433124968#7 433124968#8 433124968#9 433124968#10 5670087#0 5670087#1 5670087#2 5670087#3 420522443#0 420522443#1 420522443#2 195743555#0 195743555#1 195743555#2 480112475#0 480112475#1 5672535#0 5672535#1 474635899#1 474635901 474635902 474635903"/>
    </vehicle>
    <vehicle id="88" depart="88.00">
        <route edges="157012387#1 157012387#2 157012387#3 439933948#0 439933948#1 181546837#2 181546837#3 181546837#4 -321993366#0"/>
    </vehicle>
    <vehicle id="90" depart="90.00">
        <route edges="5672910#0 25199883#2 25199883#3 25199883#4 5670897#1 5670897#2 5670897#3 5670897#4 5670897#5 5670897#6 5670897#7 5670897#8 5670897#9 5670897#10 5670897#11 433124968#3"/>
    </vehicle>
    <vehicle id="91" depart="91.00">
        <route edges="5670488 157012386#5 5672138#1 5672138#2 481047237#0 481047237#1 5672040#9 5672040#10 5672040#11 5671743#0 5671743#1 5671743#2 5671743#3 5671743#4 5671743#5 5672896#0 5672896#1 5672896#2 5672896#3 5672896#4"/>
    </vehicle>
    <vehicle id="92" depart="92.00">
        <route edges="157012398#4 157012398#5 157012387#0 157012387#1 5670897#9 5670897#10 5670897#11 433124968#3 433124968#4 433124968#5 433124968#6 433124968#7 433124968#8 433124968#9 433124968#10 5670087#0 5670087#1 5670087#2 5670087#3 195743556#0 195743556#1 195743556#2"/>
    </vehicle>
    <vehicle id="93" depart="93.00">
        <route edges="226193933#1 226193933#2 22927373#1 22927373#2 474635904 196117032 5670044#0 5670044#1 5670044#2 5670044#3 5670044#4 5670044#5 5670044#6 5670044#7 5670044#8 5670044#9 46610727#0 46610727#1 46610727#2 420530113#0 5672988 5672912#0"/>
    </vehicle>
    <vehicle id="94" depart="94.00">
        <route edges="46610717#1 467222812#5 46607937#0 46607937#1 46607937#2 433124968#2 433124968#3 433124968#4 433124968#5 5673619#0 5673619#1 5673619#2 5673619#3 5672040#0 5672040#1 5672040#2 5672040#3 5672040#4 5672040#5 5672040#6 5672040#7 5672040#8 5672040#9 5672040#10 5672040#11 5671743#0 5671743#1 5671743#2 5671743#3 5671743#4 5671743#5 5672896#0 5672896#1 5672896#2 5673089#1 5673089#2 5673089#3"/>
    </vehicle>
    <vehicle id="95" depart="95.00">
        <route edges="474635905#1 474635905#2 474635905#3 5671429#0 5671429#1 5671429#2 5671429#3 5671429#4"/>
    </vehicle>
    <vehicle id="96" depart="96.00">
        <route edges="46610725#2 46610725#3 467222844#3 467222844#4 420598318 467222802#0 467222802#1 467222802#2 467222812#1 467222812#2 467222812#3 467222812#4 467222812#5 433124996#0 433124996#1 433124996#2 157012386#0 157012386#1 157012386#2 439933948#0 433398367 420352251#0 420352251#1 24263967#0 24263967#1 24263967#2 24263967#3"/>
    </vehicle>
    <vehicle id="97" depart="97.00">
        <route edges="216959248 216959250#0 216959250#1 480112481 216959249 195743556#0 195743556#1 195743556#2 451905565#2 451905565#3 451905565#4 474635905#2 474635905#3 5671429#0 5672896#7 5672896#8 5670924#1 421825692#0"/>
    </vehicle>
    <vehicle id="98" depart="98.00">
        <route edges="5669962#1 421825692#4 5671663#0 5671663#1 5671663#2 5672896#4 5672896#5 5672607#1 420522444#0"/>
    </vehicle>
    <vehicle id="99" depart="99.00">
        <route edges="5670814#2 5670814#3 5670814#4 5670814#5 5670814#6 5670814#7 5670814#8 5672040#3 5672040#4 5672040#5 5672040#6 5672040#7 5672040#8 5672040#9 5672040#10 5672040#11 5671743#0 5671743#1 5671743#2 5671743#3 5671743#4 5671743#5 5672896#0 5672896#1 5672896#2 5672896#3 5672896#4 5669962#1 5669962#2"/>
    </vehicle>
    <vehicle id="100" depart="100.00">
        <route edges="5672138#1 5672138#2 481047237#0 481047237#1 5672040#9 5672040#10 5672040#11 5673614 352705238#0 352705238#1 352705238#2 352705238#3 352705238#4 464522037#4 464522037#5 5672625#0 5672625#1"/>
    </vehicle>
    <vehicle id="101" depart="101.00">
        <route edges="25199870#1 321993367#1 5670814#3 5670814#4 5670814#5 5670814#6"/>
    </vehicle>
    <vehicle id="102" depart="102.00">
        <route edges="5672910#0 5672910#1 5672910#2 5672910#3 5671743#3 5671743#4 5671743#5 352705236#0 352705236#1 352705236#2 24264070#0 24264070#1 24264070#2 5670171#0 5670171#1 5670171#2 5670170#0 5670170#1 24264114#8 46608946#0 46608946#1 46608946#2 216959250#1 480112481"/>
    </vehicle>
    <vehicle id="103" depart="103.00">
        <route edges="5672873#2 5673089#2 25199883#0 25199883#1 5672910#1 5672910#2 5672910#3 5671743#3 5671743#4 5671743#5 352705236#0 352705236#1 352705236#2 24264070#0 24264070#1 24264070#2 5670171#0 433124968#9 433124968#10 5670087#0 5670087#1 5670087#2 5670087#3 420522443#0 480112480#0 164420607#1 164420607#2"/>
    </vehicle>
    <vehicle id="105" depart="105.00">
        <route edges="474635899#1 474635899#2 474635904 196117032 5670044#0 5670044#1 5670044#2 5670044#3 5670044#4 5670044#5 216959250#0 216959250#1 5669953#4 5669953#5 5669953#6 25199402#0 25199402#1 25199402#2 25199402#3 25199402#4 25199402#5 25199402#6 25199402#7 25199402#8 25199402#9 5673619#0 5673619#1 5673619#2 5673619#3 5672040#0 5672040#1 5672040#2 5672040#3 5672040#4 5672040#5 5672040#6 5672040#7 5672040#8 5672040#9 5672040#10 5672040#11 5673614 352705238#0 352705238#1 352705238#2 352705238#3 352705238#4 5673093#0 5673093#1 5673093#2 5673093#3 5673093#4"/>
    </vehicle>
    <vehicle id="106" depart="106.00">
        <route edges="474634621 474635900 474635898#0 474635898#1 489375011#0 489375011#1 489375011#2 -195743555#3 -195743555#2 -195743555#1 -195743555#0 -420522443#2 -420522443#1 -420522443#0 195743556#0 195743556#1 195743556#2 195743556#3 5669962#0 5669962#1"/>
    </vehicle>
    <vehicle id="108" depart="108.00">
        <route edges="157012386#2 157012386#3 5670814#6 5670814#7 5670814#8 5672040#3 5672040#4 5672040#5 5672040#6 5672040#7 5672040#8 5672040#9 5672040#10 5672040#11 5671743#0 5671743#1 5671743#2 5671743#3 5671743#4 5671743#5 5670172#0 5670172#1 5670172#2 5670172#3 464522037#2 464522037#3"/>
    </vehicle>
    <vehicle id="109" depart="109.00">
        <route edges="25162679#4 25162679#5 25162679#6 25162679#7 195743341#1 195743341#2 195743341#3 195743341#4 195743341#5 195743341#6 439933929 68674966#0 68674966#1 24264070#0 24264070#1 24264070#2 157012398#0 157012398#1 157012398#2 157012398#3 157012398#4 157012398#5 157012387#0 157012387#1 157012387#2 157012387#3 439933948#0 433398367 433394637#0 433394637#1 452339699#0 452339699#1 452339699#2"/>
    </vehicle>
    <vehicle id="110" depart="110.00">