<?xml version="1.0"?>
<!-- generated on 2017-05-02 00:09:12.551974 by $Id: randomTrips.py 19495 2015-12-02 12:36:28Z behrisch $
  options: -n map.net.xml -r map.rou.xml -e 119 -l
-->
<trips>
    <trip id="0" depart="0.00" from="196117090#3" to="5670836#7" />
    <trip id="1" depart="1.00" from="5673533#2" to="5670792#1" />
    <trip id="2" depart="2.00" from="5670942#1" to="-157012397" />
    <trip id="3" depart="3.00" from="46610725#1" to="5670814#6" />
    <trip id="4" depart="4.00" from="25199883#5" to="157012386#10" />
    <trip id="5" depart="5.00" from="420895282#3" to="5672713" />
    <trip id="6" depart="6.00" from="25199870#2" to="420358896#1" />
    <trip id="7" depart="7.00" from="5670814#2" to="40709927" />
    <trip id="8" depart="8.00" from="5670941#2" to="5672510#0" />
    <trip id="9" depart="9.00" from="5670193#1" to="386211349" />
    <trip id="10" depart="10.00" from="226193933#4" to="352705236#1" />
    <trip id="11" depart="11.00" from="420358896#0" to="-195743555#2" />
    <trip id="12" depart="12.00" from="348477348#2" to="157012396" />
    <trip id="13" depart="13.00" from="22927373#0" to="321993367#1" />
    <trip id="14" depart="14.00" from="480112475#0" to="5673089#3" />
    <trip id="15" depart="15.00" from="46350694#0" to="439933934" />
    <trip id="16" depart="16.00" from="157012386#11" to="420895282#2" />
    <trip id="17" depart="17.00" from="420895282#0" to="439842799" />
    <trip id="18" depart="18.00" from="46139034#6" to="46171876#10" />
    <trip id="19" depart="19.00" from="5669953#0" to="467222828#2" />
    <trip id="20" depart="20.00" from="5669806#2" to="216959248" />
    <trip id="21" depart="21.00" from="226193933#6" to="421825692#1" />
    <trip id="22" depart="22.00" from="452339699#1" to="5673533#2" />
    <trip id="23" depart="23.00" from="-5672434" to="195743556#2" />
    <trip id="24" depart="24.00" from="195743341#4" to="196117073" />
    <trip id="25" depart="25.00" from="5670836#2" to="195743341#1" />
    <trip id="26" depart="26.00" from="5671603#1" to="196117090#3" />
    <trip id="27" depart="27.00" from="321993366#0" to="5669962#6" />
    <trip id="28" depart="28.00" from="127693102#1" to="5671429#0" />
    <trip id="29" depart="29.00" from="5672607#0" to="5670924#0" />
    <trip id="30" depart="30.00" from="5672896#7" to="226193933#7" />
    <trip id="31" depart="31.00" from="181546837#0" to="5670897#4" />
    <trip id="32" depart="32.00" from="5671459#1" to="46608946#2" />
    <trip id="33" depart="33.00" from="5673102#2" to="480112480#0" />
    <trip id="34" depart="34.00" from="46608946#2" to="464522037#1" />
    <trip id="35" depart="35.00" from="5672073#1" to="5671460" />
    <trip id="36" depart="36.00" from="468414634#1" to="5669806#1" />
    <trip id="37" depart="37.00" from="-5670924#0" to="348477348#2" />
    <trip id="38" depart="38.00" from="5671429#1" to="157012396" />
    <trip id="39" depart="39.00" from="25199883#6" to="5670044#4" />
    <trip id="40" depart="40.00" from="5669962#6" to="420530114#2" />
    <trip id="41" depart="41.00" from="321993366#0" to="420526338#0" />
    <trip id="42" depart="42.00" from="317400962#1" to="157012386#11" />
    <trip id="43" depart="43.00" from="5670171#0" to="-5670924#0" />
    <trip id="44" depart="44.00" from="157012387#3" to="5673102#1" />
    <trip id="45" depart="45.00" from="196117090#7" to="5672434" />
    <trip id="46" depart="46.00" from="5670814#3" to="5670792#2" />
    <trip id="47" depart="47.00" from="433124968#3" to="25162679#6" />
    <trip id="48" depart="48.00" from="195743341#6" to="5671429#5" />
    <trip id="49" depart="49.00" from="348477348#2" to="181546837#2" />
    <trip id="50" depart="50.00" from="420526338#0" to="420895282#2" />
    <trip id="51" depart="51.00" from="46431823#2" to="420358896#1" />
    <trip id="52" depart="52.00" from="46610727#1" to="5670488" />
    <trip id="53" depart="53.00" from="352705238#4" to="474635903" />
    <trip id="54" depart="54.00" from="-195743555#2" to="5670172#2" />
    <trip id="55" depart="55.00" from="474634621" to="347306313#0" />
    <trip id="56" depart="56.00" from="352705238#3" to="-5668997#0" />
    <trip id="57" depart="57.00" from="46431829#0" to="5670488" />
    <trip id="58" depart="58.00" from="5669978#1" to="5670814#2" />
    <trip id="59" depart="59.00" from="5669806#0" to="5670792#2" />
    <trip id="60" depart="60.00" from="5672159#4" to="68668558#0" />
    <trip id="61" depart="61.00" from="46610717#1" to="5672073#1" />
    <trip id="62" depart="62.00" from="5670942#1" to="5670897#2" />
    <trip id="63" depart="63.00" from="480112484" to="5671429#1" />
    <trip id="64" depart="64.00" from="196117073" to="5670488" />
    <trip id="65" depart="65.00" from="5672654" to="5673001" />
    <trip id="66" depart="66.00" from="5672896#5" to="5670836#6" />
    <trip id="67" depart="67.00" from="5670488" to="420522444#0" />
    <trip id="68" depart="68.00" from="46610726#1" to="474635905#2" />
    <trip id="69" depart="69.00" from="-196117073" to="5669953#4" />
    <trip id="70" depart="70.00" from="5670942#1" to="5670814#1" />
    <trip id="71" depart="71.00" from="25162679#0" to="25199883#0" />
    <trip id="72" depart="72.00" from="5672607#0" to="5672535#3" />
    <trip id="73" depart="73.00" from="-196117074" to="5670836#8" />
    <trip id="74" depart="74.00" from="25199883#4" to="420809419#3" />
    <trip id="75" depart="75.00" from="439933945#1" to="195743555#1" />
    <trip id="76" depart="76.00" from="321993367#0" to="5673089#0" />
    <trip id="77" depart="77.00" from="5670792#1" to="46171876#3" />
    <trip id="78" depart="78.00" from="164420607#2" to="46610725#0" />
    <trip id="79" depart="79.00" from="348477348#2" to="25199883#1" />
    <trip id="80" depart="80.00" from="5669978#2" to="5670897#1" />
    <trip id="81" depart="81.00" from="-5669809" to="5670897#7" />
    <trip id="82" depart="82.00" from="46171876#13" to="46608946#4" />
    <trip id="83" depart="83.00" from="-317400962#1" to="5670498#1" />
    <trip id="84" depart="84.00" from="420522444#0" to="195743341#4" />
    <trip id="85" depart="85.00" from="-420522443#1" to="5670785" />
    <trip id="86" depart="86.00" from="5671429#4" to="196117090#2" />
    <trip id="87" depart="87.00" from="5673342#0" to="5672896#7" />
    <trip id="88" depart="88.00" from="468414634#0" to="5671359#1" />
    <trip id="89" depart="89.00" from="5669962#0" to="5670488" />
    <trip id="90" depart="90.00" from="5672654" to="195743341#0" />
    <trip id="91" depart="91.00" from="420522444#0" to="5673089#3" />
    <trip id="92" depart="92.00" from="-420522443#2" to="5671429#0" />
    <trip id="93" depart="93.00" from="68668541#5" to="433124968#2" />
    <trip id="94" depart="94.00" from="5669962#0" to="420809419#3" />
    <trip id="95" depart="95.00" from="5670924#0" to="226193933#7" />
    <trip id="96" depart="96.00" from="5670897#4" to="-5669837#0" />
    <trip id="97" depart="97.00" from="5670942#0" to="226193933#15" />
    <trip id="98" depart="98.00" from="68325062" to="5671608#0" />
    <trip id="99" depart="99.00" from="420522444#0" to="-352705236#1" />
    <trip id="100" depart="100.00" from="348477349" to="474635905#1" />
    <trip id="101" depart="101.00" from="157012386#9" to="474635898#0" />
    <trip id="102" depart="102.00" from="25162679#4" to="5672073#2" />
    <trip id="103" depart="103.00" from="5671327" to="25199402#4" />
    <trip id="104" depart="104.00" from="5672073#2" to="5670836#7" />
    <trip id="105" depart="105.00" from="46171876#4" to="348477348#3" />
    <trip id="106" depart="106.00" from="5672987#0" to="-5669837#1" />
    <trip id="107" depart="107.00" from="352705238#4" to="46139034#2" />
    <trip id="108" depart="108.00" from="5671603#1" to="480112478#1" />
    <trip id="109" depart="109.00" from="474635905#1" to="22927287#0" />
    <trip id="110" depart="110.00" from="5670941#0" to="433124968#8" />
    <trip id="111" depart="111.00" from="468414634#1" to="5669962#9" />
    <trip id="112" depart="112.00" from="474635905#1" to="5673309#1" />
    <trip id="113" depart="113.00" from="5669978#1" to="46171876#8" />
    <trip id="114" depart="114.00" from="46171876#12" to="22927287#0" />
    <trip id="115" depart="115.00" from="25162679#0" to="-5670087#3" />
    <trip id="116" depart="116.00" from="157012386#3" to="347306313#1" />
    <trip id="117" depart="117.00" from="5670836#7" to="321993366#1" />
    <trip id="118" depart="118.00" from="433124968#2" to="464522037#3" />
</trips>
