<?xml version="1.0"?>
<!-- generated on 2017-07-02 15:12:11.305228 by $Id: randomTrips.py 19495 2015-12-02 12:36:28Z behrisch $
  options: -n map.net.xml -r map.rou.xml -e 115 -l
-->
<trips>
    <trip id="0" depart="0.00" from="-5672922#0" to="480112479" />
    <trip id="1" depart="1.00" from="5670171#1" to="181546837#2" />
    <trip id="2" depart="2.00" from="5670836#6" to="5673089#3" />
    <trip id="3" depart="3.00" from="46609036#0" to="46171876#6" />
    <trip id="4" depart="4.00" from="25162679#6" to="420526338#0" />
    <trip id="5" depart="5.00" from="5670836#8" to="5670792#1" />
    <trip id="6" depart="6.00" from="5672912#1" to="5669953#1" />
    <trip id="7" depart="7.00" from="46608946#3" to="40709927" />
    <trip id="8" depart="8.00" from="5670814#5" to="25199870#5" />
    <trip id="9" depart="9.00" from="195743341#5" to="46350693#3" />
    <trip id="10" depart="10.00" from="46610725#2" to="5669842#0" />
    <trip id="11" depart="11.00" from="5672607#1" to="5672535#3" />
    <trip id="12" depart="12.00" from="22927287#0" to="5672159#1" />
    <trip id="13" depart="13.00" from="5672607#0" to="5670792#1" />
    <trip id="14" depart="14.00" from="5673093#3" to="5672073#1" />
    <trip id="15" depart="15.00" from="5669993#1" to="420895279" />
    <trip id="16" depart="16.00" from="5671459#1" to="352705236#1" />
    <trip id="17" depart="17.00" from="157012397" to="181546837#2" />
    <trip id="18" depart="18.00" from="226193933#13" to="452339699#2" />
    <trip id="19" depart="19.00" from="5671608#2" to="5672138#1" />
    <trip id="20" depart="20.00" from="5673102#0" to="164420607#0" />
    <trip id="21" depart="21.00" from="467222812#4" to="480112478#0" />
    <trip id="22" depart="22.00" from="5671007" to="5671668#2" />
    <trip id="23" depart="23.00" from="5670897#6" to="5673093#4" />
    <trip id="24" depart="24.00" from="321993367#0" to="5670897#6" />
    <trip id="25" depart="25.00" from="5669978#0" to="46610725#0" />
    <trip id="26" depart="26.00" from="420530114#0" to="5670044#7" />
    <trip id="27" depart="27.00" from="321993366#0" to="5672138#1" />
    <trip id="28" depart="28.00" from="5672896#8" to="25162679#1" />
    <trip id="29" depart="29.00" from="474635898#0" to="5669953#4" />
    <trip id="30" depart="30.00" from="5670454" to="439933948#0" />
    <trip id="31" depart="31.00" from="5670836#6" to="5668989" />
    <trip id="32" depart="32.00" from="5673093#3" to="474635899#0" />
    <trip id="33" depart="33.00" from="25199402#4" to="5673619#2" />
    <trip id="34" depart="34.00" from="439933929" to="5672040#10" />
    <trip id="35" depart="35.00" from="5670897#0" to="5671429#5" />
    <trip id="36" depart="36.00" from="25199870#1" to="5672434" />
    <trip id="37" depart="37.00" from="46607937#1" to="467222812#3" />
    <trip id="38" depart="38.00" from="181546837#7" to="46608946#4" />
    <trip id="39" depart="39.00" from="-5672434" to="5671429#0" />
    <trip id="40" depart="40.00" from="5673089#0" to="474635899#0" />
    <trip id="41" depart="41.00" from="25199870#2" to="5673102#2" />
    <trip id="42" depart="42.00" from="157012386#11" to="420358896#0" />
    <trip id="43" depart="43.00" from="-5670924#0" to="439933929" />
    <trip id="44" depart="44.00" from="157012386#11" to="-196117073" />
    <trip id="45" depart="45.00" from="468414632#1" to="-5670924#0" />
    <trip id="46" depart="46.00" from="5672073#0" to="5672159#1" />
    <trip id="47" depart="47.00" from="480112476#1" to="46610734#0" />
    <trip id="48" depart="48.00" from="46610727#0" to="-5672434" />
    <trip id="49" depart="49.00" from="-157012397" to="464522037#0" />
    <trip id="50" depart="50.00" from="5670087#3" to="-157012397" />
    <trip id="51" depart="51.00" from="195743556#1" to="5671668#1" />
    <trip id="52" depart="52.00" from="25162679#0" to="5670792#2" />
    <trip id="53" depart="53.00" from="-5670178" to="159657620" />
    <trip id="54" depart="54.00" from="5670792#2" to="420895285#1" />
    <trip id="55" depart="55.00" from="5673093#3" to="5672987#2" />
    <trip id="56" depart="56.00" from="-420522443#2" to="467222828#1" />
    <trip id="57" depart="57.00" from="24264070#1" to="25162679#7" />
    <trip id="58" depart="58.00" from="181546837#3" to="5670792#1" />
    <trip id="59" depart="59.00" from="5671668#3" to="-5670924#0" />
    <trip id="60" depart="60.00" from="157012386#2" to="5672896#5" />
    <trip id="61" depart="61.00" from="5669953#3" to="-5669837#1" />
    <trip id="62" depart="62.00" from="25162679#0" to="25199870#2" />
    <trip id="63" depart="63.00" from="157012398#4" to="-157012395" />
    <trip id="64" depart="64.00" from="157012386#6" to="481403101" />
    <trip id="65" depart="65.00" from="239988110#1" to="5672922#0" />
    <trip id="66" depart="66.00" from="5670171#0" to="5670924#0" />
    <trip id="67" depart="67.00" from="5670451#0" to="5669806#1" />
    <trip id="68" depart="68.00" from="25162679#7" to="474635903" />
    <trip id="69" depart="69.00" from="-5672138#1" to="474635905#1" />
    <trip id="70" depart="70.00" from="5670897#1" to="420522444#0" />
    <trip id="71" depart="71.00" from="5670924#1" to="5673093#3" />
    <trip id="72" depart="72.00" from="420809419#3" to="226193933#7" />
    <trip id="73" depart="73.00" from="195743341#0" to="5671663#0" />
    <trip id="74" depart="74.00" from="5672434" to="352705236#1" />
    <trip id="75" depart="75.00" from="5670785" to="5668989" />
    <trip id="76" depart="76.00" from="5673093#0" to="46171876#4" />
    <trip id="77" depart="77.00" from="5672040#4" to="5672434" />
    <trip id="78" depart="78.00" from="474635902" to="195743555#3" />
    <trip id="79" depart="79.00" from="5670897#3" to="5669962#6" />
    <trip id="80" depart="80.00" from="464522037#4" to="5671663#2" />
    <trip id="81" depart="81.00" from="474634621" to="5673052#2" />
    <trip id="82" depart="82.00" from="46608946#3" to="196117028#3" />
    <trip id="83" depart="83.00" from="5670897#9" to="46139034#2" />
    <trip id="84" depart="84.00" from="480112478#1" to="5672334" />
    <trip id="85" depart="85.00" from="5669953#0" to="5670836#1" />
    <trip id="86" depart="86.00" from="5670836#5" to="5672510#0" />
    <trip id="87" depart="87.00" from="-157012396" to="474635903" />
    <trip id="88" depart="88.00" from="157012387#1" to="-321993366#0" />
    <trip id="89" depart="89.00" from="5671429#3" to="420809419#2" />
    <trip id="90" depart="90.00" from="5672910#0" to="433124968#3" />
    <trip id="91" depart="91.00" from="5670488" to="5672896#4" />
    <trip id="92" depart="92.00" from="157012398#4" to="195743556#2" />
    <trip id="93" depart="93.00" from="226193933#1" to="5672912#0" />
    <trip id="94" depart="94.00" from="46610717#1" to="5673089#3" />
    <trip id="95" depart="95.00" from="474635905#1" to="5671429#4" />
    <trip id="96" depart="96.00" from="46610725#2" to="24263967#3" />
    <trip id="97" depart="97.00" from="216959248" to="421825692#0" />
    <trip id="98" depart="98.00" from="5669962#1" to="420522444#0" />
    <trip id="99" depart="99.00" from="5670814#2" to="5669962#2" />
    <trip id="100" depart="100.00" from="5672138#1" to="5672625#1" />
    <trip id="101" depart="101.00" from="25199870#1" to="5670814#6" />
    <trip id="102" depart="102.00" from="5672910#0" to="480112481" />
    <trip id="103" depart="103.00" from="5672873#2" to="164420607#2" />
    <trip id="104" depart="104.00" from="5673093#1" to="46171876#6" />
    <trip id="105" depart="105.00" from="474635899#1" to="5673093#4" />
    <trip id="106" depart="106.00" from="474634621" to="5669962#1" />
    <trip id="107" depart="107.00" from="157012386#11" to="-5670178" />
    <trip id="108" depart="108.00" from="157012386#2" to="464522037#3" />
    <trip id="109" depart="109.00" from="25162679#4" to="452339699#2" />
    <trip id="110" depart="110.00" from="5671668#0" to="5672988" />
    <trip id="111" depart="111.00" from="5671754#1" to="68668541#6" />
    <trip id="112" depart="112.00" from="22927373#2" to="5668989" />
    <trip id="113" depart="113.00" from="157012387#1" to="474635905#2" />
    <trip id="114" depart="114.00" from="46139034#1" to="5670897#9" />
</trips>
