<?xml version="1.0"?>
<!-- generated on 2017-07-06 23:18:15.768910 by $Id: randomTrips.py 19495 2015-12-02 12:36:28Z behrisch $
  options: -n map.net.xml -r map.rou.xml -e 212 -l
-->
<trips>
    <trip id="0" depart="0.00" from="-5668997#1" to="5670178" />
    <trip id="1" depart="1.00" from="5670785" to="5670514#1" />
    <trip id="2" depart="2.00" from="5671459#1" to="181546837#8" />
    <trip id="3" depart="3.00" from="433398367" to="352705238#0" />
    <trip id="4" depart="4.00" from="-321993366#0" to="46139034#1" />
    <trip id="5" depart="5.00" from="5672896#5" to="5673102#2" />
    <trip id="6" depart="6.00" from="239988110#4" to="5673001" />
    <trip id="7" depart="7.00" from="474635905#2" to="196117073" />
    <trip id="8" depart="8.00" from="5672434" to="5669962#2" />
    <trip id="9" depart="9.00" from="5669806#1" to="5673052#1" />
    <trip id="10" depart="10.00" from="-196117073" to="5669962#9" />
    <trip id="11" depart="11.00" from="5670792#3" to="5672873#2" />
    <trip id="12" depart="12.00" from="348477348#0" to="25199870#3" />
    <trip id="13" depart="13.00" from="196117090#3" to="5671668#1" />
    <trip id="14" depart="14.00" from="196117090#2" to="25162679#4" />
    <trip id="15" depart="15.00" from="196117091#1" to="347306313#0" />
    <trip id="16" depart="16.00" from="195743341#6" to="5672873#1" />
    <trip id="17" depart="17.00" from="164420607#0" to="5670044#0" />
    <trip id="18" depart="18.00" from="5672535#0" to="-5672434" />
    <trip id="19" depart="19.00" from="-196117074" to="5670814#5" />
    <trip id="20" depart="20.00" from="-157012397" to="164420607#1" />
    <trip id="21" depart="21.00" from="157012387#3" to="5671754#1" />
    <trip id="22" depart="22.00" from="5670193#1" to="5669962#1" />
    <trip id="23" depart="23.00" from="196117090#7" to="348477348#1" />
    <trip id="24" depart="24.00" from="5670514#1" to="46139034#0" />
    <trip id="25" depart="25.00" from="195743341#6" to="347306313#0" />
    <trip id="26" depart="26.00" from="22927373#0" to="5669978#2" />
    <trip id="27" depart="27.00" from="5672922#1" to="-5670178" />
    <trip id="28" depart="28.00" from="5669806#0" to="46607937#1" />
    <trip id="29" depart="29.00" from="-196117073" to="5670941#0" />
    <trip id="30" depart="30.00" from="5670814#7" to="46610726#2" />
    <trip id="31" depart="31.00" from="467222828#3" to="480112478#1" />
    <trip id="32" depart="32.00" from="5672896#7" to="5671459#1" />
    <trip id="33" depart="33.00" from="5670012#1" to="5670814#2" />
    <trip id="34" depart="34.00" from="347306313#0" to="-317400962#1" />
    <trip id="35" depart="35.00" from="5672922#1" to="46350694#1" />
    <trip id="36" depart="36.00" from="-5668993" to="46431822#1" />
    <trip id="37" depart="37.00" from="5672912#1" to="226193933#8" />
    <trip id="38" depart="38.00" from="22927287#0" to="420522443#0" />
    <trip id="39" depart="39.00" from="46608946#5" to="22927287#0" />
    <trip id="40" depart="40.00" from="68668541#0" to="5670044#7" />
    <trip id="41" depart="41.00" from="5673102#0" to="5671754#1" />
    <trip id="42" depart="42.00" from="5670836#8" to="5673093#3" />
    <trip id="43" depart="43.00" from="5670451#0" to="5670924#0" />
    <trip id="44" depart="44.00" from="5671608#1" to="5671429#5" />
    <trip id="45" depart="45.00" from="-196117074" to="5672896#7" />
    <trip id="46" depart="46.00" from="46610726#3" to="5669953#0" />
    <trip id="47" depart="47.00" from="439933948#0" to="5670454" />
    <trip id="48" depart="48.00" from="420352247" to="433394647#0" />
    <trip id="49" depart="49.00" from="22927373#0" to="5668997#1" />
    <trip id="50" depart="50.00" from="216959248" to="5672896#7" />
    <trip id="51" depart="51.00" from="24264114#8" to="420358898#2" />
    <trip id="52" depart="52.00" from="420530113#0" to="5670087#3" />
    <trip id="53" depart="53.00" from="-196117074" to="164420607#1" />
    <trip id="54" depart="54.00" from="5672910#2" to="5671743#1" />
    <trip id="55" depart="55.00" from="421825692#0" to="5673093#3" />
    <trip id="56" depart="56.00" from="-321993366#0" to="5670451#1" />
    <trip id="57" depart="57.00" from="226193933#0" to="226193933#6" />
    <trip id="58" depart="58.00" from="216959249" to="5673619#2" />
    <trip id="59" depart="59.00" from="5668989" to="25199883#5" />
    <trip id="60" depart="60.00" from="226193933#13" to="439933948#0" />
    <trip id="61" depart="61.00" from="195743341#1" to="451905565#1" />
    <trip id="62" depart="62.00" from="348477348#0" to="40709927" />
    <trip id="63" depart="63.00" from="-5672434" to="-352705236#1" />
    <trip id="64" depart="64.00" from="348477349" to="474635899#2" />
    <trip id="65" depart="65.00" from="5670897#1" to="125479715#1" />
    <trip id="66" depart="66.00" from="420809419#3" to="5672988" />
    <trip id="67" depart="67.00" from="5670044#8" to="474635898#0" />
    <trip id="68" depart="68.00" from="5670814#1" to="347306313#1" />
    <trip id="69" depart="69.00" from="5673093#3" to="5670193#1" />
    <trip id="70" depart="70.00" from="5670171#0" to="196116974#1" />
    <trip id="71" depart="71.00" from="-5670178" to="5669806#2" />
    <trip id="72" depart="72.00" from="5673309#0" to="420522444#0" />
    <trip id="73" depart="73.00" from="5669962#1" to="46350694#1" />
    <trip id="74" depart="74.00" from="5670836#5" to="5671359#1" />
    <trip id="75" depart="75.00" from="46171876#15" to="5673533#2" />
    <trip id="76" depart="76.00" from="5670897#8" to="5670785" />
    <trip id="77" depart="77.00" from="25162679#4" to="480112479" />
    <trip id="78" depart="78.00" from="-5672434" to="-5669837#1" />
    <trip id="79" depart="79.00" from="24264070#1" to="421825692#1" />
    <trip id="80" depart="80.00" from="480112483" to="5670171#3" />
    <trip id="81" depart="81.00" from="25199870#3" to="5670044#3" />
    <trip id="82" depart="82.00" from="-5669809" to="25162679#4" />
    <trip id="83" depart="83.00" from="480112480#0" to="348477348#2" />
    <trip id="84" depart="84.00" from="480112478#1" to="-195743555#0" />
    <trip id="85" depart="85.00" from="420598323#1" to="68325062" />
    <trip id="86" depart="86.00" from="24264070#1" to="420352250#0" />
    <trip id="87" depart="87.00" from="5669806#0" to="5672138#0" />
    <trip id="88" depart="88.00" from="5670171#3" to="474635905#1" />
    <trip id="89" depart="89.00" from="464522037#2" to="348477348#1" />
    <trip id="90" depart="90.00" from="68668541#3" to="68668541#7" />
    <trip id="91" depart="91.00" from="5671460" to="5670924#0" />
    <trip id="92" depart="92.00" from="420358898#1" to="5673102#1" />
    <trip id="93" depart="93.00" from="433124968#3" to="5669962#1" />
    <trip id="94" depart="94.00" from="5670897#5" to="5672896#3" />
    <trip id="95" depart="95.00" from="46171876#1" to="-317400962#0" />
    <trip id="96" depart="96.00" from="5672922#0" to="348477348#2" />
    <trip id="97" depart="97.00" from="5672625#0" to="480112475#0" />
    <trip id="98" depart="98.00" from="5672896#5" to="420358898#1" />
    <trip id="99" depart="99.00" from="480112478#1" to="25199883#2" />
    <trip id="100" depart="100.00" from="5669837#1" to="480112475#0" />
    <trip id="101" depart="101.00" from="196117090#0" to="5672896#2" />
    <trip id="102" depart="102.00" from="5670792#2" to="68668541#7" />
    <trip id="103" depart="103.00" from="5671429#4" to="157012390" />
    <trip id="104" depart="104.00" from="-5672922#1" to="25199870#3" />
    <trip id="105" depart="105.00" from="420530114#1" to="5670941#1" />
    <trip id="106" depart="106.00" from="46350694#2" to="5670897#0" />
    <trip id="107" depart="107.00" from="226193933#1" to="25199870#3" />
    <trip id="108" depart="108.00" from="5670924#0" to="25199402#7" />
    <trip id="109" depart="109.00" from="474635905#1" to="196117028#2" />
    <trip id="110" depart="110.00" from="46431823#1" to="25162679#5" />
    <trip id="111" depart="111.00" from="46610724#0" to="468414634#1" />
    <trip id="112" depart="112.00" from="46171876#7" to="181546837#1" />
    <trip id="113" depart="113.00" from="347306313#0" to="5672607#1" />
    <trip id="114" depart="114.00" from="5671754#2" to="421825692#4" />
    <trip id="115" depart="115.00" from="5669806#0" to="46610717#1" />
    <trip id="116" depart="116.00" from="5671429#1" to="5671608#1" />
    <trip id="117" depart="117.00" from="157012398#4" to="420358896#1" />
    <trip id="118" depart="118.00" from="467222812#5" to="468414632#1" />
    <trip id="119" depart="119.00" from="5670193#3" to="196117090#6" />
    <trip id="120" depart="120.00" from="5668989" to="159657620" />
    <trip id="121" depart="121.00" from="46608946#4" to="474635905#2" />
    <trip id="122" depart="122.00" from="46139034#2" to="46610727#1" />
    <trip id="123" depart="123.00" from="5670488" to="46171876#7" />
    <trip id="124" depart="124.00" from="5673093#1" to="439933948#0" />
    <trip id="125" depart="125.00" from="46171876#9" to="239988110#1" />
    <trip id="126" depart="126.00" from="-5672138#1" to="5673001" />
    <trip id="127" depart="127.00" from="5671327" to="474635898#0" />
    <trip id="128" depart="128.00" from="439933948#3" to="5670897#7" />
    <trip id="129" depart="129.00" from="480112480#1" to="-321993366#0" />
    <trip id="130" depart="130.00" from="-5672434" to="5671429#0" />
    <trip id="131" depart="131.00" from="5672922#1" to="125479715#1" />
    <trip id="132" depart="132.00" from="420895282#1" to="25199870#3" />
    <trip id="133" depart="133.00" from="5670785" to="480112477#1" />
    <trip id="134" depart="134.00" from="5670924#0" to="439933945#0" />
    <trip id="135" depart="135.00" from="348477348#1" to="5672138#0" />
    <trip id="136" depart="136.00" from="5672138#1" to="348477349" />
    <trip id="137" depart="137.00" from="5670792#0" to="5671429#3" />
    <trip id="138" depart="138.00" from="157012387#3" to="5671754#2" />
    <trip id="139" depart="139.00" from="5670044#4" to="5670814#6" />
    <trip id="140" depart="140.00" from="5672873#0" to="195743555#0" />
    <trip id="141" depart="141.00" from="474634621" to="5670792#3" />
    <trip id="142" depart="142.00" from="321993367#1" to="5670044#3" />
    <trip id="143" depart="143.00" from="-5670924#1" to="5672334" />
    <trip id="144" depart="144.00" from="5671754#2" to="25199870#3" />
    <trip id="145" depart="145.00" from="-5672434" to="46350693#0" />
    <trip id="146" depart="146.00" from="464522037#5" to="5672434" />
    <trip id="147" depart="147.00" from="226193933#9" to="195834894#1" />
    <trip id="148" depart="148.00" from="5671663#3" to="5671663#0" />
    <trip id="149" depart="149.00" from="68668541#4" to="-420526338#0" />
    <trip id="150" depart="150.00" from="420530113#0" to="46139034#0" />
    <trip id="151" depart="151.00" from="5670941#2" to="40709927" />
    <trip id="152" depart="152.00" from="68668541#6" to="420522444#1" />
    <trip id="153" depart="153.00" from="125479715#1" to="5673001" />
    <trip id="154" depart="154.00" from="5672896#6" to="5671359#1" />
    <trip id="155" depart="155.00" from="-195743555#3" to="5673052#0" />
    <trip id="156" depart="156.00" from="420809419#2" to="-5670087#3" />
    <trip id="157" depart="157.00" from="25162679#1" to="5670193#2" />
    <trip id="158" depart="158.00" from="195743556#1" to="5672334" />
    <trip id="159" depart="159.00" from="5672910#0" to="46350693#3" />
    <trip id="160" depart="160.00" from="5669962#6" to="46171876#16" />
    <trip id="161" depart="161.00" from="480112481" to="5673089#3" />
    <trip id="162" depart="162.00" from="474635902" to="46171876#11" />
    <trip id="163" depart="163.00" from="181546837#6" to="5669806#0" />
    <trip id="164" depart="164.00" from="25162679#4" to="5669806#0" />
    <trip id="165" depart="165.00" from="157012386#6" to="433124968#7" />
    <trip id="166" depart="166.00" from="5673102#0" to="489375011#2" />
    <trip id="167" depart="167.00" from="439933935#2" to="439933945#1" />
    <trip id="168" depart="168.00" from="321993367#2" to="5670012#2" />
    <trip id="169" depart="169.00" from="25199870#2" to="157012398#4" />
    <trip id="170" depart="170.00" from="46350694#2" to="-352705236#1" />
    <trip id="171" depart="171.00" from="5669978#1" to="46608946#8" />
    <trip id="172" depart="172.00" from="420530114#1" to="216959250#0" />
    <trip id="173" depart="173.00" from="68325062" to="5673102#2" />
    <trip id="174" depart="174.00" from="68668541#6" to="5673089#0" />
    <trip id="175" depart="175.00" from="46431823#1" to="5672535#0" />
    <trip id="176" depart="176.00" from="5669978#1" to="5672535#3" />
    <trip id="177" depart="177.00" from="5668989" to="5670193#2" />
    <trip id="178" depart="178.00" from="46431822#0" to="433124996#1" />
    <trip id="179" depart="179.00" from="196117028#0" to="5670172#1" />
    <trip id="180" depart="180.00" from="5670942#1" to="196117090#8" />
    <trip id="181" depart="181.00" from="464522037#4" to="5672073#1" />
    <trip id="182" depart="182.00" from="24263967#3" to="5669925#0" />
    <trip id="183" depart="183.00" from="5672040#4" to="5670171#0" />
    <trip id="184" depart="184.00" from="5670651#2" to="5669962#1" />
    <trip id="185" depart="185.00" from="5672910#2" to="5672138#0" />
    <trip id="186" depart="186.00" from="5671799#0" to="474635899#0" />
    <trip id="187" depart="187.00" from="5673622" to="68325062" />
    <trip id="188" depart="188.00" from="22927287#0" to="5672138#0" />
    <trip id="189" depart="189.00" from="46139034#1" to="196117028#3" />
    <trip id="190" depart="190.00" from="321993366#0" to="5673309#1" />
    <trip id="191" depart="191.00" from="420522444#0" to="5670942#1" />
    <trip id="192" depart="192.00" from="5673052#1" to="439933947" />
    <trip id="193" depart="193.00" from="5672896#4" to="24264070#1" />
    <trip id="194" depart="194.00" from="46610724#0" to="46350693#0" />
    <trip id="195" depart="195.00" from="433124968#9" to="24264070#1" />
    <trip id="196" depart="196.00" from="181546837#5" to="420809419#1" />
    <trip id="197" depart="197.00" from="157012386#4" to="40709927" />
    <trip id="198" depart="198.00" from="348477349" to="25199870#2" />
    <trip id="199" depart="199.00" from="46610734#1" to="439933948#0" />
    <trip id="200" depart="200.00" from="452339699#2" to="5672896#6" />
    <trip id="201" depart="201.00" from="5669806#1" to="46171876#12" />
    <trip id="202" depart="202.00" from="421825692#3" to="347306313#0" />
    <trip id="203" depart="203.00" from="157012386#9" to="226193933#13" />
    <trip id="204" depart="204.00" from="5670044#3" to="5670193#4" />
    <trip id="205" depart="205.00" from="25199870#2" to="46350693#3" />
    <trip id="206" depart="206.00" from="25199870#3" to="347306313#0" />
    <trip id="207" depart="207.00" from="474635897#0" to="46610724#0" />
    <trip id="208" depart="208.00" from="46171876#2" to="5669806#0" />
    <trip id="209" depart="209.00" from="5670785" to="348477348#1" />
    <trip id="210" depart="210.00" from="5670012#0" to="46431823#2" />
    <trip id="211" depart="211.00" from="5670924#1" to="25199402#6" />
</trips>
