<?xml version="1.0" encoding="UTF-8"?>

<!-- generated on Sun Apr  9 00:03:37 2017 by SUMO duarouter Version 0.25.0
<?xml version="1.0" encoding="UTF-8"?>

<configuration xmlns:xsi="http://www.w3.org/2001/XMLSchema-instance" xsi:noNamespaceSchemaLocation="http://sumo.dlr.de/xsd/duarouterConfiguration.xsd">

    <input>
        <net-file value="guindy.net.xml"/>
        <trip-files value="trips.trips.xml"/>
    </input>

    <output>
        <output-file value="guindy.rou.xml"/>
    </output>

    <processing>
        <ignore-errors value="true"/>
    </processing>

    <time>
        <begin value="0"/>
        <end value="3600"/>
    </time>

    <report>
        <no-warnings value="true"/>
        <no-step-log value="true"/>
    </report>

</configuration>
-->

<routes xmlns:xsi="http://www.w3.org/2001/XMLSchema-instance" xsi:noNamespaceSchemaLocation="http://sumo.dlr.de/xsd/routes_file.xsd">
    <vehicle id="0" depart="0.00">
        <route edges="-85459754#3 85459754#3 -102634600#2 -102634600#1 -102634600#0 -85459761#2 -85459761#1 85459750"/>
    </vehicle>
    <vehicle id="2" depart="2.00">
        <route edges="102634505#0 -102634505#0 -102634686#1 -102634582#2 -102634582#1 -102634582#0 -102634630#0 25995477#3 25995621#3 102634608#0 102634654#0 102634654#1 -102634608#6"/>
    </vehicle>
    <vehicle id="4" depart="4.00">
        <route edges="26281042#1 26281042#2 26281042#3 -111048773#2 -111048773#1 -111048767 -102634616#0 -85459754#3 -85459754#2 -85459756"/>
    </vehicle>
    <vehicle id="6" depart="6.00">
        <route edges="-102634686#2 102634686#2 102634686#3 -102634636#4 -102634636#3 -102634636#2 -102634636#1 111048736 85459760#1 85459754#0 85459754#1 85459754#2 85459754#3 -102634600#2 111048773#0 -111048767"/>
    </vehicle>
    <vehicle id="9" depart="9.00">
        <route edges="102634654#4 102634654#5 102634654#6 102634665#4 102634665#5 111048743#0 111048743#1 111048743#2 111048743#3 111048743#4 -102634634#1 102634636#0"/>
    </vehicle>
    <vehicle id="12" depart="12.00">
        <route edges="102634527#0 -102634527#0 -102634636#2 102634636#2"/>
    </vehicle>
    <vehicle id="13" depart="13.00">
        <route edges="102634608#4 -102634608#4 -102634608#3 -102634608#2 -102634608#1 -102634608#0 25995621#4 25995621#5 102634513 -102634498#2 -102634554 102634554"/>
    </vehicle>
    <vehicle id="15" depart="15.00">
        <route edges="102634651 -102634505#1 -102634505#0 -102634686#1 -102634582#2 -102634582#1 -102634582#0 -102634630#0 25995477#3 25995621#3 102634608#0 102634654#0"/>
    </vehicle>
    <vehicle id="16" depart="16.00">
        <route edges="-102634636#4 -102634636#3 102634527#0 102634554 102634498#2 -102634513 25995621#6 -102634631 -102634496#1 -102634496#0 102634654#1 -102634608#6 102634650"/>
    </vehicle>
    <vehicle id="17" depart="17.00">
        <route edges="-111048769 -102634576 -102634608#1 -102634608#0 25995621#4 25995621#5 102634513 -102634498#2 -102634554 -102634527#0 102634636#3"/>
    </vehicle>
    <vehicle id="19" depart="19.00">
        <route edges="102634654#6 -102634479#1 -102634479#0 -26281042#4 -26281042#3 85459757"/>
    </vehicle>
    <vehicle id="20" depart="20.00">
        <route edges="-102634636#4 -102634636#3 -102634636#2 -102634636#1 111048736 85459760#1 85459754#0 -85459754#0"/>
    </vehicle>
    <vehicle id="21" depart="21.00">
        <route edges="102634654#2 -102634654#2 -102634654#1"/>
    </vehicle>
    <vehicle id="22" depart="22.00">
        <route edges="111048743#4 -102634634#1 102634636#0 102634636#1 102634636#2 102634636#3 102634636#4 -102634686#3 -102634686#2 -102634686#1 -102634582#2 -102634582#1 102634681#0 102634681#1"/>
    </vehicle>
    <vehicle id="25" depart="25.00">
        <route edges="102634634#0 102634636#0 111048736 -111048736"/>
    </vehicle>
    <vehicle id="26" depart="26.00">
        <route edges="102634654#1 -102634654#1 -102634654#0 -102634608#0 -25995621#3 -25995477#3 102634630#0 102634582#0 102634582#1 102634582#2 102634686#1 102634505#0 102634505#1 102634505#2 102634505#3 102634505#4"/>
    </vehicle>
    <vehicle id="29" depart="29.00">
        <route edges="-102634640 -85459761#4 -85459761#3 -85459761#2 -85459761#1 -85459761#0 -111048743#5 -102634634#1 102634636#0 102634636#1 102634636#2 102634636#3"/>
    </vehicle>
    <vehicle id="30" depart="30.00">
        <route edges="102634495 102634582#2 102634686#1 102634686#2 102634686#3 -102634636#4 -102634636#3 -102634636#2 -102634636#1 111048736 85459760#1 85459754#0 85459754#1 85459754#2 85459754#3 -102634600#2 111048773#0 111048773#1 111048773#2 -26281042#3"/>
    </vehicle>
    <vehicle id="31" depart="31.00">
        <route edges="-102634654#1 102634496#0 102634496#1 102634631 -25995621#6 102634513 -102634498#2 -102634554 102634527#1 -102634527#1"/>
    </vehicle>
    <vehicle id="32" depart="32.00">
        <route edges="111048773#0 -111048767 -102634616#0 -85459754#3 -85459754#2 -85459754#1 -85459754#0 -85459760#1 -85459760#0 102634636#2 102634636#3 -102634543"/>
    </vehicle>
    <vehicle id="33" depart="33.00">
        <route edges="-25995477#2 102634686#0 -102634582#2 -102634582#1 102634681#0 102634681#1 25995621#5 25995621#6 25995621#7 -102634598#1 -102634598#0 -102634654#4"/>
    </vehicle>
    <vehicle id="34" depart="34.00">
        <route edges="-102634616#1 -102634616#0 -85459754#3 -85459754#2 -85459754#1 -85459754#0 -85459760#1 -85459760#0 102634636#2 102634636#3 102634636#4 -102634686#3 -102634686#2 -102634686#1 -102634582#2 -102634582#1 -102634582#0"/>
    </vehicle>
    <vehicle id="37" depart="37.00">
        <route edges="102634608#5 102634608#6 -102634654#1 102634496#0 102634496#1 102634631 -25995621#6 102634513 -102634498#2 -102634554 -102634527#0 -102634636#2 -102634636#1 -102634636#0 102634634#1 -111048743#4"/>
    </vehicle>
    <vehicle id="39" depart="39.00">
        <route edges="-111048730 -102634505#2 -102634505#1 -102634505#0 -102634686#1 -102634582#2 -102634582#1 -102634582#0 102634630#1"/>
    </vehicle>
    <vehicle id="41" depart="41.00">
        <route edges="-102634664 -102634654#5 102634598#0 102634598#1 -25995621#7 -25995621#6 -25995621#5 -102634681#1 -102634681#0 102634582#1 102634582#2 102634686#1"/>
    </vehicle>
    <vehicle id="42" depart="42.00">
        <route edges="102634498#0 -102634498#0 111048743#1 111048743#2 111048743#3 85459754#0 85459754#1 85459754#2 85459754#3 -102634600#2 111048773#0 111048773#1 111048773#2"/>
    </vehicle>
    <vehicle id="45" depart="45.00">
        <route edges="102634554 -102634498#1 -102634498#0 -111048743#0 -102634665#5 -102634665#4 -102634654#6 -102634654#5 -102634654#4"/>
    </vehicle>
    <vehicle id="46" depart="46.00">
        <route edges="102634582#2 102634686#1 102634686#2 102634686#3 -102634636#4 -102634636#3 102634527#0 102634527#1 102634527#2 -111048743#2 -111048743#1 102634603"/>
    </vehicle>
    <vehicle id="50" depart="50.00">
        <route edges="102634693 -85459761#6 26281042#2 26281042#3 -111048773#2 -111048773#1 -111048767 -102634616#0 -85459754#3 -85459754#2 -85459754#1 -85459754#0 -111048743#3 -102634527#2 -102634527#1 102634527#1"/>
    </vehicle>
    <vehicle id="52" depart="52.00">
        <route edges="-102634634#1 102634636#0 102634636#1 102634636#2 102634527#0 102634554 102634498#2 -102634513 25995621#6 25995621#7"/>
    </vehicle>
    <vehicle id="54" depart="54.00">
        <route edges="-102634636#2 102634636#2 102634527#0 102634554 102634498#2 -102634513 25995621#6 -102634631 -102634496#1 -102634496#0 102634654#1 -102634608#6 -102634608#5"/>
    </vehicle>
    <vehicle id="55" depart="55.00">
        <route edges="102634576 -102634576 -102634608#1 102634654#0 102634496#0"/>
    </vehicle>
    <vehicle id="56" depart="56.00">
        <route edges="25995477#3 25995621#3 102634608#0 102634608#1 102634608#2 102634608#3 102634608#4"/>
    </vehicle>
    <vehicle id="57" depart="57.00">
        <route edges="85459761#4 85459761#5 26281042#2 26281042#3 -111048773#2"/>
    </vehicle>
    <vehicle id="58" depart="58.00">
        <route edges="-85459761#6 26281042#2 26281042#3 26281042#4 377335336 -25995621#9 -25995621#8 -25995621#7"/>
    </vehicle>
    <vehicle id="59" depart="59.00">
        <route edges="-102634665#2 102634665#2 102634665#3 -102634654#6 -102634654#5 -102634654#4 -102634654#3 -102634654#2 -102634654#1"/>
    </vehicle>
    <vehicle id="60" depart="60.00">
        <route edges="85459756 -85459754#1 -85459754#0 -111048743#3 -111048743#2 -111048743#1 -111048743#0 -102634665#5 -102634665#4 -102634654#6 -102634654#5"/>
    </vehicle>
    <vehicle id="61" depart="61.00">
        <route edges="85459751#2 -102634719 -102634479#0 -26281042#4 -26281042#3 -26281042#2 85459761#6 85459761#7 -85459761#7"/>
    </vehicle>
    <vehicle id="64" depart="64.00">
        <route edges="111048773#1 -111048773#1 -111048767 102634616#1 102634616#2 -25995621#9 -25995621#8 -25995621#7 -25995621#6 -25995621#5 -25995621#4 102634608#0 102634608#1 102634576"/>
    </vehicle>
    <vehicle id="65" depart="65.00">
        <route edges="102634513 -102634513 25995621#6 25995621#7 25995621#8 25995621#9 -377335336 -26281042#4 -26281042#3 85459757 85459751#2"/>
    </vehicle>
    <vehicle id="66" depart="66.00">
        <route edges="-85459761#6 26281042#2 26281042#3 -111048773#2 -111048773#1 -111048767 -102634616#0"/>
    </vehicle>
    <vehicle id="67" depart="67.00">
        <route edges="-85459760#0 -102634636#1 111048736 85459760#1 -111048743#3 -111048743#2 -111048743#1 -111048743#0 -102634665#5 -102634665#4"/>
    </vehicle>
    <vehicle id="70" depart="70.00">
        <route edges="-102634608#6 102634608#6 -102634654#1 102634496#0 102634496#1 102634631 -25995621#6 102634513 -102634498#2 -102634554 -102634527#0 -102634636#2 -102634636#1 -102634636#0 102634634#1 -111048743#4"/>
    </vehicle>
    <vehicle id="71" depart="71.00">
        <route edges="102634594#1 -102634594#1"/>
    </vehicle>
    <vehicle id="72" depart="72.00">
        <route edges="-102634479#0 377335336 -25995621#9 -25995621#8 -25995621#7 -25995621#6 -25995621#5 -102634681#1"/>
    </vehicle>
    <vehicle id="73" depart="73.00">
        <route edges="85459751#1 -85459757 26281042#3 26281042#4 -26281042#4"/>
    </vehicle>
    <vehicle id="74" depart="74.00">
        <route edges="-102634719 -102634479#0 377335336 -25995621#9 -25995621#8 -25995621#7 -25995621#6 -25995621#5 -25995621#4 -25995621#3 -25995621#2"/>
    </vehicle>
    <vehicle id="75" depart="75.00">
        <route edges="-102634640 85459761#5 26281042#2 26281042#3 26281042#4 377335336 -25995621#9 -25995621#8 -25995621#7 -25995621#6 -25995621#5 -25995621#4 102634608#0 102634608#1 102634576"/>
    </vehicle>
    <vehicle id="76" depart="76.00">
        <route edges="85459754#3 -102634600#2 111048773#0 111048773#1 111048773#2 -26281042#3 -26281042#2 -26281042#1"/>
    </vehicle>
    <vehicle id="79" depart="79.00">
        <route edges="102634527#2 -111048743#2 -111048743#1 -111048743#0 -102634665#5 -102634665#4 -102634665#3 -102634665#2 102634594#0"/>
    </vehicle>
    <vehicle id="80" depart="80.00">
        <route edges="102634554 102634498#2 -102634513 -25995621#5 25995621#5"/>
    </vehicle>
    <vehicle id="81" depart="81.00">
        <route edges="111048773#2 26281042#4 102634479#0 102634479#1 -102634654#6 -102634654#5 -102634654#4 -102634654#3 102634560"/>
    </vehicle>
    <vehicle id="84" depart="84.00">
        <route edges="-25995621#4 -25995621#3 -25995621#2 172355062"/>
    </vehicle>
    <vehicle id="85" depart="85.00">
        <route edges="111048743#5 -111048743#5 -111048743#4 85459754#0 85459754#1 -85459756"/>
    </vehicle>
    <vehicle id="86" depart="86.00">
        <route edges="102634476 -102634576 -102634608#1 -102634608#0 25995621#4 25995621#5 25995621#6 25995621#7 -102634598#1 -102634598#0 102634654#5 102634664"/>
    </vehicle>
    <vehicle id="88" depart="88.00">
        <route edges="-85459751#2 -85459757 26281042#3 26281042#4 102634479#0 102634479#1 -102634654#6 -102634654#5 102634654#5"/>
    </vehicle>
    <vehicle id="90" depart="90.00">
        <route edges="-102634551#1 -102634551#0 102634631 -25995621#6 -25995621#5"/>
    </vehicle>
    <vehicle id="91" depart="91.00">
        <route edges="-25995621#4 25995621#4 25995621#5 25995621#6 25995621#7 -102634598#1 -102634598#0 102634654#5 102634654#6 -102634665#3 -102634665#2 -102634665#1"/>
    </vehicle>
    <vehicle id="92" depart="92.00">
        <route edges="-26281042#1 26281042#1 -85459761#5 -85459761#4 -85459761#3 -85459761#2 -85459761#1 -85459761#0 -111048743#5 -102634634#1 102634636#0 102634636#1 -102634636#1"/>
    </vehicle>
    <vehicle id="94" depart="94.00">
        <route edges="-102634654#2 -102634654#1 102634496#0 102634496#1 102634631 25995621#7 25995621#8 25995621#9 -377335336 -26281042#4 -26281042#3 -26281042#2 -85459761#5"/>
    </vehicle>
    <vehicle id="95" depart="95.00">
        <route edges="-111048743#2 102634585#0 102634585#1 25995621#9 -377335336 102634479#0 102634719 -85459751#2"/>
    </vehicle>
    <vehicle id="96" depart="96.00">
        <route edges="-102634608#5 -102634608#4 -102634608#3 -102634608#2 -102634608#1 -102634608#0 -25995621#3 -25995477#3 102634630#0 102634582#0 102634582#1 102634582#2 102634686#1 102634505#0 102634505#1 102634505#2 102634505#3 102634634#0"/>
    </vehicle>
    <vehicle id="99" depart="99.00">
        <route edges="85459750 85459754#1 85459754#2 85459754#3 -102634600#2 111048773#0 111048773#1 111048773#2 -26281042#3 85459757 -85459757"/>
    </vehicle>
    <vehicle id="100" depart="100.00">
        <route edges="102634654#2 102634654#3 102634654#4 102634654#5 102634654#6 102634665#4 102634665#5 111048743#0 111048743#1 111048743#2 111048743#3 85459754#0 -85459754#0"/>
    </vehicle>
    <vehicle id="102" depart="102.00">
        <route edges="-85459754#2 -85459754#1 -85459754#0 -111048743#3 -111048743#2 -111048743#1 111048743#1"/>
    </vehicle>
    <vehicle id="104" depart="104.00">
        <route edges="-102634686#3 102634686#3 -102634636#4 -102634636#3 102634527#0 102634527#1 102634527#2 -111048743#2 -111048743#1 -111048743#0 -102634665#5 -102634665#4 -102634665#3 -102634665#2 102634594#0 102634594#1"/>
    </vehicle>
    <vehicle id="105" depart="105.00">
        <route edges="102634562#2 102634562#3 102634562#4 179891091#0 179891091#1 19744300#2 19744300#3 26280900 26280899 177587077 142540522#0"/>
    </vehicle>
    <vehicle id="108" depart="108.00">
        <route edges="102634498#0 102634498#1 -102634554 -102634527#0 102634636#3 -102634543 102634505#1 -102634505#1"/>
    </vehicle>
    <vehicle id="109" depart="109.00">
        <route edges="102634654#5 -102634654#5 102634598#0 102634598#1 -25995621#7 -25995621#6 -25995621#5 25995621#5"/>
    </vehicle>
    <vehicle id="110" depart="110.00">
        <route edges="102634582#0 102634681#0 102634681#1 25995621#5 25995621#6 25995621#7 25995621#8"/>
    </vehicle>
    <vehicle id="112" depart="112.00">
        <route edges="111048736 85459760#1 -111048743#3 -111048743#2 -111048743#1 -111048743#0 -102634665#5 -102634665#4 -102634665#3 111048725"/>
    </vehicle>
    <vehicle id="113" depart="113.00">
        <route edges="377335336 -102634616#2 -102634616#1 111048767 111048773#1"/>
    </vehicle>
    <vehicle id="116" depart="116.00">
        <route edges="377335336 -102634616#2 -102634616#1 -102634616#0 -85459754#3 -85459754#2 -85459754#1 -85459754#0 -85459760#1 -85459760#0 102634636#2 102634636#3 102634636#4 -102634686#3 -102634686#2"/>
    </vehicle>
    <vehicle id="117" depart="117.00">
        <route edges="-102634665#5 102634665#5 111048743#0 111048743#1 111048743#2 -102634527#2 -102634527#1 -102634527#0 102634636#3 102634636#4 -102634686#3 -102634686#2 -102634686#1 -102634582#2 -102634582#1"/>
    </vehicle>
    <vehicle id="119" depart="119.00">
        <route edges="85459761#4 85459761#5 85459761#6 85459761#7 85459751#1"/>
    </vehicle>
    <vehicle id="120" depart="120.00">
        <route edges="-102634608#0 102634608#0 102634654#0 102634654#1 -102634608#6 102634650"/>
    </vehicle>
    <vehicle id="122" depart="122.00">
        <route edges="-102634582#1 102634582#1 102634582#2 102634686#1 102634686#2 102634686#3 -102634636#4 -102634636#3 -102634636#2 -102634636#1 111048736 85459760#1 85459754#0 85459754#1 85459754#2 85459754#3 -102634600#2 -102634600#1 -102634600#0"/>
    </vehicle>
    <vehicle id="123" depart="123.00">
        <route edges="-85459761#7 -85459761#6 -85459761#5 -85459761#4 -85459761#3 -85459761#2 -85459761#1 -85459761#0 -111048743#5 -102634634#1 102634636#0 102634636#1 102634636#2 102634636#3"/>
    </vehicle>
    <vehicle id="124" depart="124.00">
        <route edges="108689273#1 -108689273#1 -108689273#0 -107298896 32559841#5 19744300#0 32559844#0 32559844#1 22742008#0 22742008#1"/>
    </vehicle>
    <vehicle id="125" depart="125.00">
        <route edges="102634636#1 -102634636#1 111048736 85459760#1 85459754#0 85459754#1 85459754#2 85459754#3 -102634600#2 111048773#0 111048773#1 -111048773#1"/>
    </vehicle>
    <vehicle id="126" depart="126.00">
        <route edges="85459761#5 26281042#2 26281042#3 26281042#4 377335336 -25995621#9 -25995621#8 -102634598#1 -102634487"/>
    </vehicle>
    <vehicle id="128" depart="128.00">
        <route edges="85459756 85459754#2 85459754#3 102634616#0 -102634616#0"/>
    </vehicle>
    <vehicle id="129" depart="129.00">
        <route edges="102634608#2 -102634608#2 -102634608#1 -102634608#0 -25995621#3 -25995477#3 102634630#0 102634582#0 102634681#0"/>
    </vehicle>
    <vehicle id="130" depart="130.00">
        <route edges="102634616#2 -102634616#2 -102634616#1 -102634616#0 -85459754#3 -85459754#2 -85459754#1 -85459754#0 111048743#4"/>
    </vehicle>
    <vehicle id="131" depart="131.00">
        <route edges="102634608#0 -102634608#0 -25995621#3 -25995477#3 102634630#0 102634582#0 102634582#1 102634582#2 102634686#1 102634505#0 102634505#1 -102634651 25995477#1"/>
    </vehicle>
    <vehicle id="133" depart="133.00">
        <route edges="102634603 -102634603 102634498#0"/>
    </vehicle>
    <vehicle id="134" depart="134.00">
        <route edges="102634616#0 -102634616#0 -85459754#3 -85459754#2 -85459754#1 -85459754#0 -111048743#3 -111048743#2 -111048743#1 -111048743#0 -102634665#5 -102634665#4 -102634654#6 -102634654#5 -102634654#4"/>
    </vehicle>
    <vehicle id="135" depart="135.00">
        <route edges="102634631 -25995621#6 102634513 -102634498#2 -102634498#1 -102634498#0 111048743#1 111048743#2 111048743#3 85459754#0 85459754#1"/>
    </vehicle>
    <vehicle id="136" depart="136.00">
        <route edges="-85459754#0 85459754#0 85459754#1 85459754#2 85459754#3 -102634600#2 111048773#0 111048773#1 111048773#2 26281042#4"/>
    </vehicle>
    <vehicle id="137" depart="137.00">
        <route edges="102634608#3 -102634608#3 -102634608#2 -102634608#1 -102634608#0 25995621#4 25995621#5 25995621#6 -25995621#6"/>
    </vehicle>
    <vehicle id="138" depart="138.00">
        <route edges="102634651 -102634505#1 102634543 -102634543"/>
    </vehicle>
    <vehicle id="139" depart="139.00">
        <route edges="-111048743#3 -102634527#2 -102634527#1 -102634527#0 102634636#3 102634636#4 -102634686#3 102634686#3"/>
    </vehicle>
    <vehicle id="140" depart="140.00">
        <route edges="26280916 32559841#0 32559841#1 32559841#2 32559841#3 179891091#0 179891091#1 19744300#2 19744695"/>
    </vehicle>
    <vehicle id="141" depart="141.00">
        <route edges="-102634636#1 -102634636#0 102634634#1 111048743#5 85459761#0 85459761#1 85459761#2"/>
    </vehicle>
    <vehicle id="142" depart="142.00">
        <route edges="-102634498#1 -102634498#0 102634603 102634585#1 25995621#9 -377335336 -26281042#4 -26281042#3 85459757 -85459751#1"/>
    </vehicle>
    <vehicle id="143" depart="143.00">
        <route edges="111048743#4 -102634634#1 102634636#0 102634636#1 102634636#2 102634527#0 102634554 102634498#2 -102634513 -25995621#5 -25995621#4 102634608#0 102634608#1 102634608#2 102634608#3 102634608#4 -102634608#4"/>
    </vehicle>
    <vehicle id="146" depart="146.00">
        <route edges="108689273#1 -108689273#1 -108689273#0 -107298896 32559841#5 19744300#0 32559844#0 179891091#1 19744300#2 19744695 378426448#4"/>
    </vehicle>
    <vehicle id="147" depart="147.00">
        <route edges="-102634654#0 -102634608#0 25995621#4 25995621#5 25995621#6 25995621#7 25995621#8 25995621#9 -102634616#2 -102634616#1 -102634616#0 -102634600#2 -102634600#1"/>
    </vehicle>
    <vehicle id="151" depart="151.00">
        <route edges="102634665#3 -102634654#6 -102634654#5 102634598#0 102634598#1 -25995621#7 -25995621#6 -25995621#5 -25995621#4 102634608#0 102634654#0"/>
    </vehicle>
    <vehicle id="153" depart="153.00">
        <route edges="102634527#1 -102634527#1 -102634527#0 102634636#3 102634636#4 -102634686#3 -102634686#2 -102634686#1 -102634582#2 -102634582#1"/>
    </vehicle>
    <vehicle id="154" depart="154.00">
        <route edges="102634554 -102634498#1 -102634498#0 111048743#1 111048743#2 111048743#3 85459754#0 85459754#1 85459754#2 85459754#3 -102634600#2 111048773#0 -111048767"/>
    </vehicle>
    <vehicle id="157" depart="157.00">
        <route edges="102634686#2 102634686#3 -102634636#4 -102634636#3 -102634636#2"/>
    </vehicle>
    <vehicle id="159" depart="159.00">
        <route edges="-102634498#1 -102634498#0 111048743#1"/>
    </vehicle>
    <vehicle id="160" depart="160.00">
        <route edges="-102634600#2 102634600#2 -85459754#3 -85459754#2 -85459754#1 -85459754#0 -85459760#1 -85459760#0 102634636#2 102634636#3 102634636#4 -102634686#3 -102634686#2 -102634686#1 -102634582#2 -102634582#1 -102634582#0 102634582#0"/>
    </vehicle>
    <vehicle id="161" depart="161.00">
        <route edges="-102634487 102634665#5 111048743#0 111048743#1 111048743#2 -102634527#2 -102634527#1 -102634527#0 102634636#3 -102634543 102634543"/>
    </vehicle>
    <vehicle id="163" depart="163.00">
        <route edges="-102634560 102634654#3 102634654#4 102634654#5 102634654#6 102634665#4 102634665#5 111048743#0 111048743#1 111048743#2 111048743#3 111048743#4 111048743#5 85459761#0 85459761#1 -85459761#1"/>
    </vehicle>
    <vehicle id="164" depart="164.00">
        <route edges="102634554 102634498#2 -102634513"/>
    </vehicle>
    <vehicle id="168" depart="168.00">
        <route edges="-102634594#1 -102634594#0 102634665#2 102634665#3 -102634654#6 -102634654#5 -102634654#4 -102634654#3 -102634654#2 -102634608#6 102634650"/>
    </vehicle>
    <vehicle id="169" depart="169.00">
        <route edges="102634496#1 102634631 -25995621#6 102634513 -102634498#2 -102634554 102634554"/>
    </vehicle>
    <vehicle id="170" depart="170.00">
        <route edges="-102634664 -102634654#5 102634598#0 102634598#1 -25995621#7 -25995621#6 -25995621#5 -25995621#4 102634608#0 102634608#1 102634576"/>
    </vehicle>
    <vehicle id="172" depart="172.00">
        <route edges="111048767 -111048767 102634616#1 102634616#2 -25995621#9 -25995621#8 -25995621#7 -25995621#6 -25995621#5 -102634681#1"/>
    </vehicle>
    <vehicle id="173" depart="173.00">
        <route edges="102634487 102634598#1 -25995621#7 -25995621#6 -25995621#5 -102634681#1 -102634681#0 102634582#1 102634582#2 102634686#1 102634686#2"/>
    </vehicle>
    <vehicle id="174" depart="174.00">
        <route edges="-85459750 -85459761#0 -111048743#5 -102634634#1 102634636#0 102634636#1 102634636#2 102634527#0 102634554 102634498#2 -102634513 25995621#6 -102634631 -102634496#1 -102634496#0 102634654#1 102634654#2"/>
    </vehicle>
    <vehicle id="176" depart="176.00">
        <route edges="-85459761#7 -85459761#6 -85459761#5 -85459761#4 -85459761#3 -85459761#2 -85459761#1 -85459761#0 -111048743#5 -102634634#1 -102634634#0 -102634505#3 -102634505#2"/>
    </vehicle>
    <vehicle id="180" depart="180.00">
        <route edges="-25995621#9 -25995621#8 -102634598#1 -102634598#0"/>
    </vehicle>
    <vehicle id="182" depart="182.00">
        <route edges="-111048773#0 102634600#2 102634616#0 102634616#1 102634616#2 -25995621#9 -25995621#8 -25995621#7 -25995621#6"/>
    </vehicle>
    <vehicle id="185" depart="185.00">
        <route edges="102634600#1 102634600#2 102634616#0 102634616#1 102634616#2 -377335336 102634479#0 102634719 -85459751#2"/>
    </vehicle>
    <vehicle id="186" depart="186.00">
        <route edges="-25995621#7 25995621#7 25995621#8 25995621#9 -102634616#2 -102634616#1 111048767 111048773#1 -111048773#1"/>
    </vehicle>
    <vehicle id="187" depart="187.00">
        <route edges="102634479#0 -102634479#0 377335336 -25995621#9 -25995621#8 -25995621#7 -25995621#6 -25995621#5 -25995621#4 -25995621#3"/>
    </vehicle>
    <vehicle id="191" depart="191.00">
        <route edges="102634654#4 102634654#5 102634654#6 -102634654#6"/>
    </vehicle>
    <vehicle id="192" depart="192.00">
        <route edges="-102634551#1 102634551#1 102634654#4 102634654#5 102634654#6 102634665#4 102634665#5 111048743#0 102634603"/>
    </vehicle>
    <vehicle id="196" depart="196.00">
        <route edges="-85459760#1 85459760#1 85459754#0 85459754#1 85459754#2 85459754#3 -102634600#2 111048773#0"/>
    </vehicle>
    <vehicle id="197" depart="197.00">
        <route edges="102634476 -102634576 -102634608#1 -102634608#0 25995621#4 25995621#5 102634513 -102634498#2 -102634498#1 -102634533"/>
    </vehicle>
    <vehicle id="198" depart="198.00">
        <route edges="-25995621#5 25995621#5 102634513 -102634498#2 -102634554 -102634527#0 -102634636#2 -102634636#1 -102634636#0 102634634#1 111048743#5 85459761#0 85459761#1 85459761#2"/>
    </vehicle>
    <vehicle id="200" depart="200.00">
        <route edges="-102634505#3 -102634505#2 -102634505#1 -102634505#0 -102634686#1 -102634582#2 -102634582#1 -102634582#0 -102634630#0 25995477#3 25995621#3 102634608#0 102634608#1 102634576 -102634576"/>
    </vehicle>
    <vehicle id="201" depart="201.00">
        <route edges="25995621#1 25995621#2 -25995477#3 102634630#0 102634582#0 102634582#1 102634582#2 102634686#1 102634686#2 102634686#3 -102634636#4 -102634636#3 102634527#0 102634527#1 102634533"/>
    </vehicle>
    <vehicle id="202" depart="202.00">
        <route edges="102634594#0 -102634594#0 102634665#2 102634665#3 102634665#4 102634665#5 111048743#0 111048743#1 111048743#2 111048743#3 85459754#0 85459754#1 85459754#2 85459754#3 -102634600#2 -102634600#1 102634600#1"/>
    </vehicle>
    <vehicle id="203" depart="203.00">
        <route edges="-85459761#5 -85459761#4 -85459761#3 -85459761#2 -85459761#1 -85459761#0 -111048743#5 -102634634#1 102634634#1"/>
    </vehicle>
    <vehicle id="204" depart="204.00">
        <route edges="-102634686#0 102634686#0 102634686#1 102634686#2 102634686#3 -102634636#4 -102634636#3 -102634636#2 -102634636#1 -102634636#0 102634634#1 111048743#5 85459761#0 85459761#1"/>
    </vehicle>
    <vehicle id="205" depart="205.00">
        <route edges="-102634686#0 102634686#0 -102634582#2 -102634582#1 102634681#0 102634681#1 25995621#5 25995621#6 25995621#7 -102634598#1 -102634598#0 -102634654#4"/>
    </vehicle>
    <vehicle id="207" depart="207.00">
        <route edges="102634631 25995621#7 -102634598#1 -102634598#0 102634654#5 102634654#6 -102634665#3 -102634665#2 102634665#2"/>
    </vehicle>
    <vehicle id="209" depart="209.00">
        <route edges="102634496#1 102634631 -25995621#6 -25995621#5 -102634681#1 -102634681#0 102634582#1 102634582#2 102634686#1 102634505#0 102634505#1 102634505#2 102634505#3"/>
    </vehicle>
    <vehicle id="210" depart="210.00">
        <route edges="-26281042#2 -26281042#1 85459751#0"/>
    </vehicle>
    <vehicle id="214" depart="214.00">
        <route edges="-25995621#4 25995621#4 25995621#5 25995621#6 25995621#7 25995621#8 25995621#9 -377335336 -26281042#4 -26281042#3 -26281042#2 26281042#2"/>
    </vehicle>
    <vehicle id="215" depart="215.00">
        <route edges="102634562#1 102634562#2 102634562#3 102634562#4 32559841#4"/>
    </vehicle>
    <vehicle id="219" depart="219.00">
        <route edges="-111048743#0 111048743#0 111048743#1 111048743#2 -102634527#2 -102634527#1 -102634527#0 102634636#3 102634636#4 -102634686#3 -102634686#2 -102634686#1 -102634582#2"/>
    </vehicle>
    <vehicle id="221" depart="221.00">
        <route edges="102634654#5 -102634654#5 102634598#0 -102634487"/>
    </vehicle>
    <vehicle id="223" depart="223.00">
        <route edges="-102634496#1 102634496#1 102634551#0 102634551#1 -102634654#3 -102634654#2"/>
    </vehicle>
    <vehicle id="224" depart="224.00">
        <route edges="-102634634#0 -102634505#3 -102634505#2 -102634505#1 -102634505#0 -102634686#1 -102634582#2 -102634582#1 102634681#0 102634681#1 -102634681#1"/>
    </vehicle>
    <vehicle id="225" depart="225.00">
        <route edges="-102634665#1 -102634594#1 -102634610"/>
    </vehicle>
    <vehicle id="226" depart="226.00">
        <route edges="102634636#4 -102634686#3 -102634686#2 102634505#0 102634505#1 102634505#2"/>
    </vehicle>
    <vehicle id="227" depart="227.00">
        <route edges="-102634498#2 -102634498#1 -102634498#0 102634603 102634585#1 -25995621#8"/>
    </vehicle>
    <vehicle id="229" depart="229.00">
        <route edges="102634498#2 -102634513 -25995621#5 -25995621#4 -25995621#3 -25995621#2 -25995621#1"/>
    </vehicle>
    <vehicle id="232" depart="232.00">
        <route edges="102634623 -102634551#0 102634631 25995621#7"/>
    </vehicle>
    <vehicle id="233" depart="233.00">
        <route edges="102634623 -102634551#0 102634631 -25995621#6 -25995621#5 -25995621#4 102634608#0 102634608#1 102634608#2 102634608#3 102634608#4"/>
    </vehicle>
    <vehicle id="234" depart="234.00">
        <route edges="111048743#5 -111048743#5 -102634634#1 -102634634#0 -102634505#3 -102634505#2 -102634505#1"/>
    </vehicle>
    <vehicle id="235" depart="235.00">
        <route edges="85459754#2 85459754#3 -102634600#2 -102634600#1 -102634600#0 -85459761#2 -85459761#1 85459761#1"/>
    </vehicle>