<?xml version="1.0" encoding="UTF-8"?>

<!-- generated on Sat Apr  8 21:11:24 2017 by SUMO polyconvert Version 0.25.0
<?xml version="1.0" encoding="UTF-8"?>

<configuration xmlns:xsi="http://www.w3.org/2001/XMLSchema-instance" xsi:noNamespaceSchemaLocation="http://sumo.dlr.de/xsd/polyconvertConfiguration.xsd">

    <input>
        <net-file value="guindy.net.xml"/>
        <osm-files value="guindy.osm"/>
        <type-file value="osmPolyconvert.typ.xml"/>
    </input>

    <output>
        <output-file value="guindy.poly.xml"/>
    </output>

    <processing>
        <poi-layer-offset value="5"/>
    </processing>

</configuration>
-->

<additional xmlns:xsi="http://www.w3.org/2001/XMLSchema-instance" xsi:noNamespaceSchemaLocation="http://sumo.dlr.de/xsd/additional_file.xsd">
    <location netOffset="-602749.91,-4074463.83" convBoundary="-0.00,-1056.42,14214.39,6813.05" origBoundary="10.152596,36.800376,10.312297,36.870199" projParameter="+proj=utm +zone=32 +ellps=WGS84 +datum=WGS84 +units=m +no_defs"/>

    <poly id="100788085" type="shop" color="237,199,255" fill="1" layer="-1.00" shape="4425.27,2220.31 4393.68,2130.57 4422.42,2120.55 4454.01,2210.28 4425.27,2220.31"/>
    <poly id="102634546" type="residential" color="235,235,227" fill="1" layer="-3.00" shape="3431.72,3061.02 3453.81,3114.08 3461.97,3132.17 3486.74,3162.22 3525.95,3190.61 3553.75,3207.66 3572.41,3218.78 3583.91,3226.55 3625.35,3243.76 3632.86,3271.16 3798.65,3274.47 4129.26,3279.31 4154.47,3278.32 4183.01,3277.20 4215.53,3270.66 4248.13,3257.88 4310.35,3219.06 4322.04,3205.67 4337.40,3176.69 4346.56,3141.73 4348.60,3090.00 4348.23,2981.63 4347.18,2867.21 4343.81,2772.97 4321.01,2399.50 4320.65,2392.14 4316.61,2310.24 4316.28,2303.57 4309.48,2151.00 4307.04,2054.31 4305.03,2028.68 4296.70,1971.42 4275.31,1929.78 4244.61,1899.04 4220.79,1878.94 4179.70,1845.43 4137.05,1796.60 4090.74,1734.20 4044.19,1689.84 4008.27,1661.26 3976.35,1647.31 3952.36,1639.20 3938.12,1640.99 3919.29,1651.32 3864.37,1713.44 3771.56,1814.82 3701.68,1889.82 3626.34,1955.57 3571.03,2004.62 3503.16,2052.96 3468.84,2075.03 3465.93,2084.73 3457.68,2097.13 3446.95,2107.00 3435.42,2114.92 3358.12,2158.97 3325.77,2179.69 3350.09,2512.33 3431.72,3061.02"/>
    <poly id="108689078" type="farm" color="242,242,204" fill="1" layer="-3.00" shape="3554.98,1863.85 3611.81,1806.13 3628.73,1787.78 3672.40,1729.64 3711.10,1677.71 3816.05,1540.55 3802.67,1533.18 3698.04,1672.17 3606.54,1788.86 3538.91,1849.79 3406.62,1968.21 3390.97,1981.72 3387.05,1976.64 3315.99,2053.14 3314.11,2051.22 3299.11,2068.69 3297.23,2067.40 3292.30,2073.02 3288.96,2070.25 3263.45,2098.34 3260.02,2101.89 3268.97,2116.05 3310.17,2079.76 3310.24,2137.23 3324.11,2129.97 3320.60,2073.38 3401.80,1995.96 3419.54,1983.39 3554.98,1863.85"/>
    <poly id="108689089" type="building" color="255,230,230" fill="1" layer="-1.00" shape="3735.78,1712.74 3748.89,1723.29 3753.43,1717.74 3762.14,1724.79 3733.72,1759.52 3730.28,1756.73 3728.19,1759.29 3713.68,1747.52 3724.66,1734.11 3721.43,1731.49 3735.78,1712.74"/>
    <poly id="108689102" type="landuse" color="194,194,130" fill="1" layer="-3.00" shape="3763.26,1723.51 3793.52,1742.18 3755.25,1784.98 3744.88,1784.32 3725.70,1769.65 3733.72,1759.52 3762.14,1724.79 3763.26,1723.51"/>
    <poly id="108689125" type="farm" color="242,242,204" fill="1" layer="-3.00" shape="3735.84,1694.33 3694.51,1748.48 3682.46,1738.12 3678.07,1734.57 3672.40,1729.64 3711.10,1677.71 3735.84,1694.33"/>
    <poly id="108689135" type="parking" color="184,184,179" fill="1" layer="-1.00" shape="3714.66,1771.71 3711.90,1775.00 3699.41,1789.90 3694.26,1796.04 3700.59,1801.31 3684.15,1820.93 3693.32,1828.55 3730.16,1784.59 3725.27,1780.44 3720.80,1776.80 3714.66,1771.71"/>
    <poly id="108689192" type="landuse" color="194,194,130" fill="1" layer="-3.00" shape="3807.67,1742.31 3884.87,1657.39 3898.62,1639.16 3905.77,1622.17 3905.58,1610.66 3902.39,1602.09 3897.52,1595.13 3816.05,1540.55 3711.10,1677.71 3735.84,1694.33 3807.67,1742.31"/>
    <poly id="108689195" type="commercial" color="209,209,204" fill="1" layer="-3.00" shape="3704.26,1852.90 3753.40,1800.96 3761.35,1792.37 3807.67,1742.31 3735.84,1694.33 3711.10,1677.71 3672.40,1729.64 3628.73,1787.78 3633.77,1792.13 3637.87,1795.95 3645.57,1802.02 3681.17,1833.02 3685.94,1837.09 3704.26,1852.90"/>
    <poly id="108689209" type="landuse" color="194,194,130" fill="1" layer="-3.00" shape="3730.16,1784.59 3742.55,1790.58 3761.35,1792.37 3753.40,1800.96 3704.26,1852.90 3669.45,1887.50 3651.84,1873.39 3681.17,1833.02 3685.94,1837.09 3690.95,1831.29 3693.32,1828.55 3730.16,1784.59"/>
    <poly id="108689211" type="parking" color="184,184,179" fill="1" layer="-1.00" shape="3728.19,1759.29 3722.00,1766.86 3707.49,1755.09 3713.68,1747.52 3728.19,1759.29"/>
    <poly id="108689238" type="building" color="255,230,230" fill="1" layer="-1.00" shape="3820.51,1618.34 3833.18,1602.20 3800.30,1576.64 3777.83,1605.28 3772.47,1601.11 3761.98,1614.48 3769.08,1620.01 3773.85,1613.93 3785.61,1623.09 3801.15,1603.28 3820.51,1618.34"/>
    <poly id="108689268" type="parking" color="184,184,179" fill="1" layer="-1.00" shape="3708.78,1748.03 3721.43,1731.49 3735.78,1712.74 3730.67,1708.87 3703.67,1744.16 3708.78,1748.03"/>
    <poly id="108689270" type="commercial" color="209,209,204" fill="1" layer="-3.00" shape="3816.80,1520.63 3949.70,1339.40 3701.94,1155.68 3686.10,1143.75 3537.70,1034.16 3497.26,1002.72 3506.78,990.15 3508.71,983.11 3601.52,817.09 3547.95,756.60 3379.88,605.99 3290.12,606.20 3221.92,624.08 3156.72,639.69 3127.95,644.26 3114.23,644.87 3098.57,645.54 3086.59,651.97 3077.86,657.78 3071.24,661.07 3059.10,661.80 3049.40,658.57 3043.89,650.28 3037.51,645.77 3010.13,638.71 2947.42,631.16 2898.53,627.90 2875.86,624.99 2890.74,636.80 2861.67,692.67 2855.56,692.05 2852.85,708.63 2846.17,708.00 2837.59,783.61 2879.72,812.06 2827.39,888.77 2803.81,873.83 2788.89,897.59 2900.77,975.96 2921.02,945.79 2926.87,949.52 2949.60,965.98 2940.40,978.59 2928.48,995.27 3090.84,1108.72 3180.21,1166.01 3190.57,1154.71 3248.65,1067.19 3272.40,1082.81 3296.85,1098.49 3391.41,949.40 3439.28,986.62 3372.91,1094.02 3335.75,1154.81 3330.40,1151.91 3291.20,1210.95 3283.16,1220.57 3351.26,1263.24 3344.47,1275.67 3368.26,1289.72 3446.52,1333.85 3548.68,1393.24 3802.67,1533.18 3816.05,1540.55 3816.59,1532.65 3816.80,1520.63"/>
    <poly id="110471898" type="landuse" color="194,194,130" fill="1" layer="-3.00" shape="3344.47,1275.67 3368.26,1289.72 3446.52,1333.85 3548.68,1393.24 3802.67,1533.18 3698.04,1672.17 3606.54,1788.86 3538.91,1849.79 3483.54,1809.43 3498.86,1793.91 3425.84,1740.49 3413.48,1756.21 3397.70,1743.88 3410.25,1728.02 3336.53,1673.25 3305.21,1716.28 3277.44,1692.64 3271.07,1698.35 3265.46,1692.83 3246.17,1716.43 3239.13,1660.70 3259.64,1639.08 3246.17,1626.12 3172.82,1698.91 3159.86,1684.50 3129.09,1650.29 3191.15,1575.28 3234.67,1522.67 3177.65,1471.46 3181.00,1467.53 3225.19,1415.65 3230.10,1409.34 3307.67,1319.42 3340.02,1280.96 3344.47,1275.67"/>
    <poly id="110472017" type="landuse" color="194,194,130" fill="1" layer="-3.00" shape="4271.73,1350.59 4114.25,1209.87 4098.93,1223.45 4272.80,1379.90 4568.69,1646.14 5090.70,2160.44 5100.23,2168.23 5110.38,2177.30 5120.54,2185.09 5137.76,2192.97 5524.27,2362.00 5535.77,2366.62 5547.31,2366.76 5560.19,2361.81 5569.89,2356.19 5579.55,2353.11 5624.58,2294.56 5724.90,2160.70 5734.75,2131.35 5728.34,2103.42 5581.49,2017.65 5457.84,1939.34 5341.16,1854.41 5227.57,1763.18 5127.16,1670.95 5047.68,1596.46 4979.22,1517.45 4893.62,1415.69 4811.22,1306.55 4730.57,1184.50 4652.67,1054.48 4574.26,893.06 4559.56,882.95 4543.91,888.93 4355.71,1046.79 4324.01,1083.47 4294.16,1138.30 4278.55,1191.59 4272.20,1240.68 4271.73,1350.59"/>
    <poly id="111045290" type="farm" color="242,242,204" fill="1" layer="-3.00" shape="3816.80,1520.63 3816.59,1532.65 3816.05,1540.55 3897.52,1595.13 3902.39,1602.09 3905.58,1610.66 3905.77,1622.17 3938.12,1640.99 3952.36,1639.20 3976.35,1647.31 4008.27,1661.26 4090.74,1734.20 4137.05,1796.60 4179.70,1845.43 4220.79,1878.94 4244.61,1899.04 4275.31,1929.78 4296.70,1971.42 4305.03,2028.68 4307.04,2054.31 4355.62,2051.50 4359.89,2042.95 4370.65,2032.50 4521.72,1978.01 4583.36,1906.01 4565.84,1875.24 4553.02,1851.22 4511.51,1751.73 4499.31,1728.10 4485.13,1704.23 4470.26,1683.83 4454.29,1665.39 4438.88,1649.81 4422.21,1636.29 4401.08,1620.28 4368.91,1600.37 4303.86,1564.18 4268.03,1540.00 4251.38,1523.62 4238.06,1509.71 4187.97,1532.10 4187.52,1546.82 4181.14,1571.29 4166.64,1591.39 4150.61,1607.59 4118.62,1620.11 4076.07,1629.35 4048.91,1623.96 4000.55,1608.35 3816.80,1520.63"/>
    <poly id="111048721" type="parking" color="184,184,179" fill="1" layer="-1.00" shape="3992.43,1821.12 4009.39,1832.92 4011.73,1829.58 4045.60,1853.14 4050.58,1846.05 4046.46,1843.19 4048.33,1840.52 4018.13,1819.51 4014.81,1824.24 3998.30,1812.76 3992.43,1821.12"/>
    <poly id="111048724" type="industrial" color="209,209,204" fill="1" layer="-3.00" shape="3603.66,2138.36 3672.64,2184.27 3680.74,2183.01 3750.02,2093.89 3726.53,2072.86 3780.20,1992.46 3751.01,1972.74 3722.34,2015.67 3690.50,2063.33 3667.13,2046.24 3651.21,2071.10 3603.66,2138.36"/>
    <poly id="111048729" type="building" color="255,230,230" fill="1" layer="-1.00" shape="4123.58,1850.09 4167.78,1847.20 4168.76,1862.01 4160.09,1862.58 4159.65,1855.94 4135.79,1857.49 4136.43,1867.33 4174.97,1864.81 4175.37,1871.04 4169.32,1871.44 4169.54,1874.71 4176.00,1874.28 4177.94,1903.74 4130.65,1906.83 4129.78,1893.59 4131.91,1893.45 4131.44,1886.35 4128.27,1886.57 4127.68,1877.79 4125.42,1877.94 4123.58,1850.09"/>
    <poly id="111048733" type="parking" color="184,184,179" fill="1" layer="-1.00" shape="3738.45,1886.24 3750.25,1894.77 3779.99,1854.00 3768.19,1845.47 3738.45,1886.24"/>
    <poly id="111048735" type="building" color="255,230,230" fill="1" layer="-1.00" shape="4190.51,1909.23 4200.08,1915.43 4195.43,1922.55 4185.85,1916.35 4190.51,1909.23"/>
    <poly id="111048737" type="building" color="255,230,230" fill="1" layer="-1.00" shape="4185.88,1878.09 4199.42,1886.49 4195.68,1892.48 4208.58,1900.48 4202.47,1910.24 4189.94,1902.47 4193.57,1896.67 4179.65,1888.04 4185.88,1878.09"/>
    <poly id="111048738" type="parking" color="184,184,179" fill="1" layer="-1.00" shape="3821.52,1909.63 3798.62,1893.43 3794.97,1872.16 3830.40,1897.15 3821.52,1909.63"/>
    <poly id="111048739" type="parking" color="184,184,179" fill="1" layer="-1.00" shape="3758.43,1932.93 3788.83,1952.98 3796.78,1941.02 3747.88,1908.76 3739.92,1920.72 3758.43,1932.93"/>
    <poly id="111048742" type="building" color="255,230,230" fill="1" layer="-1.00" shape="4137.84,1897.80 4167.52,1895.81 4166.05,1874.15 4136.36,1876.15 4137.84,1897.80"/>
    <poly id="111048745" type="building" color="255,230,230" fill="1" layer="-1.00" shape="3950.38,2099.53 3962.71,2111.58 3969.23,2104.97 3956.89,2092.92 3950.38,2099.53"/>
    <poly id="111048751" type="farm" color="242,242,204" fill="1" layer="-3.00" shape="3826.07,2051.94 3839.15,2065.81 3876.27,2029.26 3875.00,2020.68 3850.73,2020.54 3826.07,2051.94"/>
    <poly id="111048755" type="parking" color="184,184,179" fill="1" layer="-1.00" shape="4011.19,1758.84 4017.71,1746.93 4021.02,1729.66 4019.61,1704.79 4026.33,1704.88 4028.10,1727.87 4027.50,1734.37 4031.78,1736.99 4029.58,1746.74 4021.27,1764.80 4011.19,1758.84"/>
    <poly id="111048757" type="parking" color="184,184,179" fill="1" layer="-1.00" shape="3994.52,1778.81 4004.90,1786.47 3971.18,1831.75 3960.81,1824.09 3994.52,1778.81"/>
    <poly id="111048759" type="landuse" color="194,194,130" fill="1" layer="-3.00" shape="3610.73,2041.94 3615.20,2045.86 3651.21,2071.10 3667.13,2046.24 3690.50,2063.33 3722.34,2015.67 3698.69,1999.85 3737.23,1946.17 3704.81,1923.66 3610.73,2041.94"/>
    <poly id="111048761" type="parking" color="184,184,179" fill="1" layer="-1.00" shape="4214.20,1923.93 4231.90,1936.92 4228.80,1941.10 4251.09,1957.47 4244.14,1966.86 4204.15,1937.50 4214.20,1923.93"/>
    <poly id="111048762" type="landuse" color="194,194,130" fill="1" layer="-3.00" shape="3848.16,1907.36 3831.67,1895.38 3839.07,1885.26 3823.67,1874.09 3853.02,1833.98 3884.92,1857.12 3848.16,1907.36"/>
    <poly id="111048768" type="amenity" color="237,199,199" fill="1" layer="-1.00" shape="4088.55,1870.02 4100.19,1878.03 4105.62,1889.96 4091.80,1909.92 4169.34,1963.19 4217.09,1894.27 4179.49,1868.44 4168.99,1844.20 4146.31,1839.35 4135.77,1844.12 4115.94,1830.50 4088.55,1870.02"/>
    <poly id="111048772" type="parking" color="184,184,179" fill="1" layer="-1.00" shape="3894.58,2033.33 3922.33,2032.40 3921.71,2014.28 3893.97,2015.21 3894.58,2033.33"/>
    <poly id="111048776" type="landuse" color="194,194,130" fill="1" layer="-3.00" shape="3781.11,1809.27 3809.53,1835.33 3792.67,1862.03 3779.99,1854.00 3768.19,1845.47 3775.78,1836.45 3764.50,1829.63 3781.11,1809.27"/>
    <poly id="111048777" type="farm" color="242,242,204" fill="1" layer="-3.00" shape="3964.50,2010.39 3984.85,2009.56 3986.58,2051.34 3966.22,2052.18 3964.50,2010.39"/>
    <poly id="111048778" type="parking" color="184,184,179" fill="1" layer="-1.00" shape="3913.98,1764.67 3926.23,1774.20 3891.70,1818.22 3879.44,1808.69 3913.98,1764.67"/>
    <poly id="111048785" type="building" color="255,230,230" fill="1" layer="-1.00" shape="3919.05,2102.04 3942.26,2078.43 3949.35,2085.34 3952.01,2082.63 3956.18,2086.70 3947.13,2095.91 3942.62,2091.50 3931.66,2102.65 3938.80,2109.62 3932.94,2115.58 3919.05,2102.04"/>
    <poly id="111048787" type="building" color="255,230,230" fill="1" layer="-1.00" shape="4162.24,1911.89 4165.90,1907.41 4173.81,1906.83 4178.69,1910.79 4171.57,1919.51 4168.44,1916.98 4170.18,1914.85 4168.04,1913.11 4166.33,1915.20 4162.24,1911.89"/>
    <poly id="111048790" type="amenity" color="237,199,199" fill="1" layer="-1.00" shape="3985.85,2110.19 3973.55,2098.14 3958.37,2083.25 3944.21,2069.38 3908.34,2105.65 3922.78,2120.16 3949.99,2146.46 3985.85,2110.19"/>
    <poly id="172009374" type="amenity" color="237,199,199" fill="1" layer="-1.00" shape="3722.58,1381.09 3674.29,1350.46 3677.41,1345.58 3697.65,1313.92 3700.09,1310.11 3713.12,1318.37 3721.02,1323.38 3731.16,1329.81 3748.39,1340.73 3725.71,1376.20 3722.58,1381.09"/>
    <poly id="172192723" type="building" color="255,230,230" fill="1" layer="-1.00" shape="4426.99,2206.28 4404.29,2142.89 4423.81,2135.95 4446.51,2199.35 4426.99,2206.28"/>
    <poly id="172621570" type="building" color="255,230,230" fill="1" layer="-1.00" shape="3697.65,1313.92 3710.68,1322.18 3713.12,1318.37 3721.02,1323.38 3714.68,1333.30 3711.09,1331.02 3706.66,1337.95 3723.50,1348.62 3728.24,1341.21 3725.12,1339.24 3731.16,1329.81 3748.39,1340.73 3725.71,1376.20 3677.41,1345.58 3697.65,1313.92"/>
    <poly id="172621577" type="landuse" color="194,194,130" fill="1" layer="-3.00" shape="3778.16,1403.98 3733.68,1469.78 3812.72,1513.79 3856.65,1456.37 3778.16,1403.98"/>
    <poly id="205740491" type="industrial" color="209,209,204" fill="1" layer="-3.00" shape="5391.12,4245.24 5409.78,4232.75 5428.17,4215.65 5454.39,4184.47 5488.74,4120.01 5507.25,4083.51 5534.05,4021.93 5548.59,3980.52 5559.16,3934.94 5568.98,3879.35 5573.61,3815.48 5570.62,3772.23 5569.02,3749.20 5566.59,3726.28 5515.25,3471.55 5390.51,2867.74 5375.50,2828.92 5367.09,2786.55 5298.95,2448.58 5262.92,2402.99 5224.99,2373.31 5120.87,2308.04 4887.88,2174.47 4521.72,1978.01 4370.65,2032.50 4359.89,2042.95 4355.62,2051.50 4389.13,2769.96 4391.78,2870.03 4406.01,2870.48 4408.86,2912.27 4410.32,2957.60 4418.61,2982.60 4436.48,3012.39 4448.67,3006.06 4516.12,3102.21 4540.19,3140.03 4504.48,3161.80 4472.21,3176.12 4413.96,3214.84 4389.40,3233.19 4402.38,3466.21 4438.41,4095.89 4445.77,4218.83 4453.58,4273.32 4465.64,4312.73 4482.26,4335.81 4540.02,4383.97 4552.55,4395.29 4563.01,4399.82 4571.92,4404.48 4585.25,4407.10 4605.63,4408.75 4651.77,4403.03 4701.81,4394.91 5325.52,4269.39 5353.76,4260.99 5391.12,4245.24"/>
    <poly id="276758208" type="commercial" color="209,209,204" fill="1" layer="-3.00" shape="4555.09,2075.28 4585.40,2163.87 4555.99,2173.84 4525.68,2085.25 4555.09,2075.28"/>
    <poly id="319826752" type="building" color="255,230,230" fill="1" layer="-1.00" shape="3969.20,1959.18 3973.68,1953.09 3979.99,1956.33 3974.95,1963.81 3969.20,1959.18"/>
    <poly id="319826752#1" type="shop" color="237,199,255" fill="1" layer="-1.00" shape="3969.20,1959.18 3973.68,1953.09 3979.99,1956.33 3974.95,1963.81 3969.20,1959.18"/>
    <poly id="435139654" type="parking" color="184,184,179" fill="1" layer="-1.00" shape="4238.18,2129.94 4253.26,2129.65 4252.07,2097.83 4237.23,2098.24 4238.18,2129.94"/>
    <poly id="93264436" type="water" color="181,209,209" fill="1" layer="-4.00" shape="6719.48,2255.95 6904.57,2324.73 6922.43,2277.44 6978.39,2298.40 6998.74,2244.55 7054.39,2265.39 7075.47,2209.57 7196.53,2254.90 7175.09,2311.65 7231.08,2332.63 7210.60,2386.85 7469.30,2483.75 7489.67,2429.84 7545.29,2450.67 7566.46,2394.64 7686.76,2439.70 7665.49,2496.02 7722.01,2517.20 7701.16,2572.42 7904.10,2645.25 7925.06,2591.51 7980.57,2612.45 8002.07,2555.79 8121.49,2600.97 8099.70,2657.32 8155.31,2679.13 8134.17,2732.70 8393.58,2830.20 8415.50,2776.90 8470.12,2797.89 8489.95,2741.01 8765.99,2844.59 8814.36,2835.31 8824.93,2856.08 8859.15,2884.17 10112.73,3381.76 10160.70,3397.04 10208.31,3447.51 10320.69,3485.41 10601.89,3555.91 11063.09,3583.84 11203.77,3575.64 11423.77,3546.00 11557.60,3518.26 11636.37,3496.76 11622.86,3433.09 11849.21,3353.27 11928.90,3290.31 11963.71,3206.93 12007.43,3029.93 12063.29,2861.46 12133.19,2729.78 12273.25,2618.85 12429.26,2518.06 12635.01,2362.28 12722.34,2301.72 12813.09,2270.94 12881.46,2254.33 12933.35,2266.46 13026.77,2265.45 13255.73,2261.70 13372.79,2267.10 13445.77,2249.05 13548.55,2178.79 13644.19,2126.74 13848.03,2004.85 13883.56,1983.39 13892.04,1985.08 13894.72,1983.35 13897.27,1981.55 13898.45,1976.09 13944.27,1950.17 13960.14,1938.37 13967.11,1932.96 13944.28,1898.00 13923.11,1912.09 13911.94,1919.53 13845.02,1914.51 13830.81,1906.58 13820.94,1900.72 13814.71,1897.24 13767.01,1870.56 13484.39,1732.42 13434.06,1703.82 12860.62,1420.05 12146.52,1059.70 12139.34,1051.01 12137.76,1040.13 12143.25,1013.80 12146.37,1009.91 12152.85,999.28 12177.68,853.43 12183.00,816.99 12176.78,815.37 12169.86,851.85 12134.22,1001.51 12136.11,1010.81 12131.67,1035.61 12128.00,1041.19 12120.25,1045.27 12106.93,1043.16 11741.83,861.37 11614.74,770.41 11544.21,708.71 11474.59,633.63 11419.22,564.48 11370.05,491.95 11317.97,416.97 11280.02,369.48 11238.08,334.00 11214.03,320.95 11145.48,295.78 11037.15,273.09 10859.82,235.97 10733.45,208.22 10658.92,195.98 10576.50,187.99 10420.67,190.29 10218.29,208.34 10087.97,210.96 9804.04,247.64 9732.70,257.54 9676.87,244.98 9603.48,202.43 9528.47,141.72 9467.68,89.82 9380.61,-3.32 9337.91,-45.04 9270.24,-87.68 9216.52,-113.13 9121.21,-143.81 9090.55,-160.93 8850.26,-213.88 8271.32,-346.51 8175.25,-364.36 7627.91,-475.27 7061.16,-596.34 6829.98,-653.34 6543.73,-713.06 6415.10,-744.60 6332.87,-760.01 6239.52,-781.13 6229.16,-775.77 6217.49,-731.49 6215.63,-731.96 6222.78,-761.83 6226.68,-780.22 6222.26,-791.70 6210.50,-794.27 6204.30,-788.76 6199.10,-767.07 6192.90,-741.65 6188.19,-735.73 6181.72,-737.56 6176.15,-738.95 6170.96,-740.43 6157.01,-747.16 6146.45,-765.44 6138.07,-788.01 6123.55,-801.93 6024.69,-826.62 5500.39,-934.00 5227.10,-994.92 4940.66,-1056.42 4870.74,-1038.24 4845.95,-1015.67 4732.73,-965.25 4600.63,-874.64 4491.93,-757.06 4426.96,-644.26 4400.33,-597.31 4369.45,-577.87 4321.05,-564.76 4228.53,-576.60 4010.65,-606.78 3972.56,-622.50 3793.41,-820.76 3766.89,-821.37 3759.34,-827.68 3754.37,-869.92 3737.86,-869.46 3739.17,-855.08 3735.42,-844.82 3734.81,-828.13 3744.89,-805.11 3705.84,-569.81 4168.78,-514.06 4287.30,-499.61 4329.09,-473.16 4351.50,-428.65 4353.71,-360.77 4345.79,-157.28 4358.10,82.28 4381.68,271.58 4377.09,283.84 4365.74,288.51 3989.94,248.49 3987.79,271.51 4375.93,311.51 4385.14,316.03 4390.98,326.92 4435.60,495.74 4512.14,742.19 4549.18,840.25 4114.25,1209.87 4271.73,1350.59 4272.20,1240.68 4278.55,1191.59 4294.16,1138.30 4324.01,1083.47 4355.71,1046.79 4543.91,888.93 4559.56,882.95 4574.26,893.06 4652.67,1054.48 4730.57,1184.50 4811.22,1306.55 4893.62,1415.69 4979.22,1517.45 5047.68,1596.46 5127.16,1670.95 5227.57,1763.18 5341.16,1854.41 5457.84,1939.34 5581.49,2017.65 5728.34,2103.42 5734.75,2131.35 5724.90,2160.70 5624.58,2294.56 5635.07,2302.25 5767.11,2124.18 5784.67,2120.18 5814.14,2134.20 5820.91,2129.74 5835.00,2137.62 5841.79,2157.29 5969.71,2211.50 5991.42,2220.70 6091.25,2251.47 6189.85,2277.62 6325.34,2302.47 6438.11,2317.19 6482.32,2317.73 6526.90,2313.85 6563.58,2305.04 6574.00,2300.43 6581.04,2292.21 6589.71,2280.07 6597.30,2273.55 6609.16,2268.43 6622.89,2267.80 6635.56,2272.71 6654.65,2271.90 6668.48,2267.85 6691.57,2258.51 6704.54,2256.32 6719.48,2255.95"/>
    <poly id="94346317" type="water" color="181,209,209" fill="0" layer="-4.00" shape="4693.56,1809.96 4683.90,1818.11 4592.39,1903.17"/>
    <poly id="94346335" type="water" color="181,209,209" fill="1" layer="-4.00" shape="3415.73,-585.76 3408.26,-586.24 3398.18,-585.96 3388.51,-585.69 3378.80,-582.60 3371.51,-579.07 3362.99,-574.38 3355.24,-567.25 3349.93,-560.89 3344.99,-552.53 3342.06,-544.15 3338.69,-531.75 3248.35,124.94 3248.27,131.36 3249.39,138.19 3251.32,144.64 3254.89,149.90 3262.05,156.40 3269.23,162.10 3279.27,164.63 3518.47,203.30 3523.67,205.78 3528.47,208.64 3532.45,212.71 3536.40,218.77 3602.21,368.79 3605.28,380.87 3607.18,389.71 3608.30,396.55 3612.09,674.54 3614.16,702.24 3622.21,734.82 3631.61,757.00 3639.11,768.73 3649.77,786.51 3988.57,1156.02 4021.06,1174.32 4034.79,1205.15 4057.14,1225.22 4062.12,1229.69 4066.32,1233.47 4258.39,1400.44 4549.81,1667.61 4693.56,1809.96 5073.70,2186.41 5092.75,2201.34 5114.37,2216.30 5134.12,2226.77 5477.98,2370.99 5502.61,2380.03 5513.73,2384.21 5537.42,2387.71 5553.45,2387.91 5571.51,2380.47 5583.14,2373.60 5589.04,2363.45 5635.07,2302.25 5624.58,2294.56 5579.55,2353.11 5569.89,2356.19 5560.19,2361.81 5547.31,2366.76 5535.77,2366.62 5524.27,2362.00 5137.76,2192.97 5120.54,2185.09 5110.38,2177.30 5100.23,2168.23 5090.70,2160.44 4568.69,1646.14 4272.80,1379.90 4098.93,1223.45 4051.13,1180.44 4026.27,1167.99 4018.27,1141.06 3684.89,780.13 3676.16,769.59 3667.85,757.85 3660.75,745.73 3652.90,728.79 3648.63,715.90 3644.38,701.42 3642.61,682.14 3639.15,410.57 3638.19,390.90 3636.72,379.25 3632.48,363.96 3576.91,233.81 3566.60,210.35 3559.24,197.00 3550.88,188.87 3538.50,179.90 3525.67,175.32 3515.65,170.78 3286.88,136.25 3281.26,134.18 3278.11,128.53 3276.58,122.48 3373.34,-532.13 3375.44,-538.52 3379.13,-544.08 3384.43,-549.23 3391.09,-553.62 3400.00,-555.57 3411.42,-555.13 3643.09,-523.14 3651.12,-522.98 3660.40,-524.46 3668.90,-527.57 3676.61,-532.28 3683.94,-538.21 3688.04,-544.17 3692.56,-551.34 3695.48,-559.33 3734.47,-805.23 3728.98,-818.42 3712.42,-820.08 3703.92,-809.60 3699.62,-787.99 3662.96,-561.41 3659.27,-556.64 3654.41,-554.29 3645.69,-554.42 3415.73,-585.76"/>
    <poly id="94346371" type="water" color="181,209,209" fill="0" layer="-4.00" shape="3826.91,1516.77 3806.70,1543.34"/>
    <poly id="94346435" type="water" color="181,209,209" fill="0" layer="-4.00" shape="4592.39,1903.17 4537.75,1963.80"/>
    <poly id="94346642" type="water" color="181,209,209" fill="0" layer="-4.00" shape="4008.23,1276.35 3826.91,1516.77"/>
    <poly id="94346660" type="landuse" color="194,194,130" fill="1" layer="-3.00" shape="4066.32,1233.47 4043.59,1260.58 4078.36,1301.26 4140.31,1375.66 4188.88,1438.67 4238.06,1509.71 4251.38,1523.62 4268.03,1540.00 4303.86,1564.18 4368.91,1600.37 4401.08,1620.28 4422.21,1636.29 4438.88,1649.81 4454.29,1665.39 4470.26,1683.83 4485.13,1704.23 4499.31,1728.10 4511.51,1751.73 4553.02,1851.22 4565.84,1875.24 4583.36,1906.01 4614.16,1946.64 4659.18,1975.40 5101.24,2229.95 5114.37,2216.30 5092.75,2201.34 5073.70,2186.41 4693.56,1809.96 4549.81,1667.61 4258.39,1400.44 4066.32,1233.47"/>
    <poly id="94346673" type="water" color="181,209,209" fill="0" layer="-4.00" shape="4537.75,1963.80 4505.50,1980.11 4369.53,2028.73 4353.97,2041.95 4351.27,2052.77 4363.32,2322.18"/>
    <poly id="94346688" type="water" color="181,209,209" fill="0" layer="-4.00" shape="3806.70,1543.34 3608.46,1803.35 3413.30,1976.07"/>
    <poly id="95134305" type="tourism" color="207,245,201" fill="1" layer="-2.00" shape="4000.55,1608.35 4048.91,1623.96 4076.07,1629.35 4118.62,1620.11 4150.61,1607.59 4166.64,1591.39 4181.14,1571.29 4187.52,1546.82 4187.97,1532.10 4182.93,1514.90 4142.66,1441.17 4111.59,1395.12 4060.14,1327.93 3992.85,1248.68 3631.77,842.49 3601.52,817.09 3508.71,983.11 3506.78,990.15 3497.26,1002.72 3537.70,1034.16 3686.10,1143.75 3701.94,1155.68 3949.70,1339.40 3816.80,1520.63 4000.55,1608.35"/>
    <poi id="4299027207" type="shop" color="237,199,255" layer="4.00" x="4019.32" y="1947.12"/>
    <poi id="4400848144" type="amenity" color="237,199,199" layer="4.00" x="3726.93" y="1773.65"/>
</additional>
