<?xml version="1.0" encoding="UTF-8"?>

<!-- generated on Sat Apr  8 21:01:52 2017 by SUMO netconvert Version 0.25.0
<?xml version="1.0" encoding="UTF-8"?>

<configuration xmlns:xsi="http://www.w3.org/2001/XMLSchema-instance" xsi:noNamespaceSchemaLocation="http://sumo.dlr.de/xsd/netconvertConfiguration.xsd">

    <input>
        <osm-files value="guindy.osm"/>
    </input>

    <output>
        <output-file value="guindy.net.xml"/>
    </output>

    <projection>
        <proj.utm value="true"/>
    </projection>

</configuration>
-->

<net version="0.25" xmlns:xsi="http://www.w3.org/2001/XMLSchema-instance" xsi:noNamespaceSchemaLocation="http://sumo.dlr.de/xsd/net_file.xsd">

    <location netOffset="-602749.91,-4074463.83" convBoundary="0.00,0.00,14214.39,6813.05" origBoundary="10.152596,36.802645,10.312297,36.870199" projParameter="+proj=utm +zone=32 +ellps=WGS84 +datum=WGS84 +units=m +no_defs"/>

    <type id="highway.bridleway" priority="1" numLanes="1" speed="2.78" allow="pedestrian" oneway="1" width="2.00"/>
    <type id="highway.bus_guideway" priority="1" numLanes="1" speed="8.33" allow="bus" oneway="1"/>
    <type id="highway.cycleway" priority="1" numLanes="1" speed="5.56" allow="bicycle" oneway="0" width="1.00"/>
    <type id="highway.footway" priority="1" numLanes="1" speed="8.33" allow="pedestrian" oneway="1" width="2.00"/>
    <type id="highway.ford" priority="1" numLanes="1" speed="2.78" allow="army" oneway="0"/>
    <type id="highway.living_street" priority="3" numLanes="1" speed="2.78" disallow="tram rail_urban rail rail_electric ship" oneway="0"/>
    <type id="highway.motorway" priority="13" numLanes="2" speed="44.44" allow="private emergency authority army vip passenger hov taxi bus coach delivery truck trailer motorcycle evehicle custom1 custom2" oneway="1"/>
    <type id="highway.motorway_link" priority="12" numLanes="1" speed="22.22" allow="private emergency authority army vip passenger hov taxi bus coach delivery truck trailer motorcycle evehicle custom1 custom2" oneway="1"/>
    <type id="highway.path" priority="1" numLanes="1" speed="2.78" allow="bicycle pedestrian" oneway="1" width="2.00"/>
    <type id="highway.pedestrian" priority="1" numLanes="1" speed="8.33" allow="pedestrian" oneway="1" width="2.00"/>
    <type id="highway.primary" priority="9" numLanes="2" speed="27.78" disallow="tram rail_urban rail rail_electric ship" oneway="0"/>
    <type id="highway.primary_link" priority="8" numLanes="1" speed="22.22" disallow="tram rail_urban rail rail_electric ship" oneway="0"/>
    <type id="highway.raceway" priority="14" numLanes="2" speed="83.33" allow="vip" oneway="0"/>
    <type id="highway.residential" priority="4" numLanes="1" speed="13.89" disallow="tram rail_urban rail rail_electric ship" oneway="0"/>
    <type id="highway.secondary" priority="7" numLanes="2" speed="27.78" disallow="tram rail_urban rail rail_electric ship" oneway="0"/>
    <type id="highway.secondary_link" priority="6" numLanes="1" speed="22.22" disallow="tram rail_urban rail rail_electric ship" oneway="0"/>
    <type id="highway.service" priority="2" numLanes="1" speed="5.56" allow="delivery bicycle pedestrian" oneway="0"/>
    <type id="highway.services" priority="1" numLanes="1" speed="8.33" disallow="tram rail_urban rail rail_electric ship" oneway="0"/>
    <type id="highway.stairs" priority="1" numLanes="1" speed="1.39" allow="pedestrian" oneway="1" width="2.00"/>
    <type id="highway.step" priority="1" numLanes="1" speed="1.39" allow="pedestrian" oneway="1" width="2.00"/>
    <type id="highway.steps" priority="1" numLanes="1" speed="1.39" allow="pedestrian" oneway="1" width="2.00"/>
    <type id="highway.tertiary" priority="6" numLanes="1" speed="22.22" disallow="tram rail_urban rail rail_electric ship" oneway="0"/>
    <type id="highway.tertiary_link" priority="5" numLanes="1" speed="22.22" disallow="tram rail_urban rail rail_electric ship" oneway="0"/>
    <type id="highway.track" priority="1" numLanes="1" speed="5.56" disallow="tram rail_urban rail rail_electric ship" oneway="0"/>
    <type id="highway.trunk" priority="11" numLanes="2" speed="27.78" disallow="tram rail_urban rail rail_electric bicycle pedestrian ship" oneway="0"/>
    <type id="highway.trunk_link" priority="10" numLanes="1" speed="22.22" disallow="tram rail_urban rail rail_electric bicycle pedestrian ship" oneway="0"/>
    <type id="highway.unclassified" priority="5" numLanes="1" speed="13.89" disallow="tram rail_urban rail rail_electric ship" oneway="0"/>
    <type id="highway.unsurfaced" priority="1" numLanes="1" speed="8.33" disallow="tram rail_urban rail rail_electric ship" oneway="0"/>
    <type id="railway.light_rail" priority="15" numLanes="1" speed="27.78" allow="rail_urban" oneway="1"/>
    <type id="railway.preserved" priority="15" numLanes="1" speed="27.78" allow="rail" oneway="1"/>
    <type id="railway.rail" priority="15" numLanes="1" speed="83.33" allow="rail rail_electric" oneway="1"/>
    <type id="railway.subway" priority="15" numLanes="1" speed="27.78" allow="rail_urban" oneway="1"/>
    <type id="railway.tram" priority="15" numLanes="1" speed="13.89" allow="tram" oneway="1"/>

    <edge id=":1096179395_0" function="internal">
        <lane id=":1096179395_0_0" index="0" allow="bicycle pedestrian" speed="2.78" length="5.00" width="2.00" shape="4711.68,2008.45 4716.02,2010.94"/>
    </edge>
    <edge id=":1096179395_1" function="internal">
        <lane id=":1096179395_1_0" index="0" allow="bicycle pedestrian" speed="2.78" length="4.03" width="2.00" shape="4711.68,2008.45 4712.56,2009.13 4713.00,2009.93 4713.02,2010.84 4712.60,2011.87"/>
    </edge>
    <edge id=":1096182519_0" function="internal">
        <lane id=":1096182519_0_0" index="0" allow="bicycle pedestrian" speed="2.78" length="4.03" width="2.00" shape="4695.39,2041.67 4694.98,2042.69 4695.00,2043.60 4695.44,2044.40 4696.31,2045.08"/>
    </edge>
    <edge id=":1096182519_1" function="internal">
        <lane id=":1096182519_1_0" index="0" allow="bicycle pedestrian" speed="2.78" length="5.00" width="2.00" shape="4691.98,2042.59 4696.31,2045.08"/>
    </edge>
    <edge id=":1183575583_0" function="internal">
        <lane id=":1183575583_0_0" index="0" disallow="tram rail_urban rail rail_electric ship" speed="13.89" length="4.96" shape="3794.26,1361.49 3793.01,1360.99 3791.88,1360.99 3790.88,1361.51 3790.01,1362.55"/>
    </edge>
    <edge id=":1183575583_1" function="internal">
        <lane id=":1183575583_1_0" index="0" disallow="tram rail_urban rail rail_electric ship" speed="13.89" length="4.82" shape="3794.26,1361.49 3793.61,1360.16 3793.66,1359.24 3794.43,1358.73 3795.92,1358.64"/>
    </edge>
    <edge id=":1185286516_0" function="internal">
        <lane id=":1185286516_0_0" index="0" allow="delivery bicycle pedestrian" speed="5.56" length="4.82" shape="3995.75,1787.41 3997.13,1786.86 3998.05,1786.99 3998.49,1787.79 3998.47,1789.28"/>
    </edge>
    <edge id=":1185286636_0" function="internal">
        <lane id=":1185286636_0_0" index="0" allow="delivery bicycle pedestrian" speed="5.56" length="4.82" shape="4247.34,1959.23 4247.90,1960.61 4247.78,1961.53 4246.97,1961.98 4245.48,1961.97"/>
    </edge>
    <edge id=":1185286753_0" function="internal">
        <lane id=":1185286753_0_0" index="0" disallow="tram rail_urban rail rail_electric ship" speed="13.89" length="5.02" shape="4180.90,1965.26 4179.67,1964.64 4178.55,1964.56 4177.52,1965.03 4176.59,1966.05"/>
    </edge>
    <edge id=":1185286753_1" function="internal">
        <lane id=":1185286753_1_0" index="0" allow="delivery bicycle pedestrian" speed="9.73" length="3.46" shape="4180.90,1965.26 4178.83,1963.32 4178.57,1962.76"/>
    </edge>
    <edge id=":1185286753_2" function="internal">
        <lane id=":1185286753_2_0" index="0" disallow="tram rail_urban rail rail_electric ship" speed="13.89" length="2.20" shape="4180.90,1965.26 4180.36,1963.88 4180.47,1963.17"/>
    </edge>
    <edge id=":1185286753_9" function="internal">
        <lane id=":1185286753_9_0" index="0" speed="9.73" length="6.87" shape="4178.57,1962.76 4177.85,1961.19 4177.99,1958.86 4179.22,1956.34"/>
    </edge>
    <edge id=":1185286753_10" function="internal">
        <lane id=":1185286753_10_0" index="0" speed="13.89" length="2.62" shape="4180.47,1963.17 4180.50,1962.97 4181.31,1962.53 4182.80,1962.56"/>
    </edge>
    <edge id=":1185286753_3" function="internal">
        <lane id=":1185286753_3_0" index="0" disallow="tram rail_urban rail rail_electric ship" speed="9.73" length="5.05" shape="4181.95,1958.20 4181.35,1959.43 4181.29,1960.56 4181.77,1961.61 4182.80,1962.56"/>
    </edge>
    <edge id=":1185286753_4" function="internal">
        <lane id=":1185286753_4_0" index="0" disallow="tram rail_urban rail rail_electric ship" speed="9.73" length="9.50" shape="4181.95,1958.20 4176.59,1966.05"/>
    </edge>
    <edge id=":1185286753_5" function="internal">
        <lane id=":1185286753_5_0" index="0" allow="delivery bicycle pedestrian" speed="5.56" length="4.82" shape="4181.95,1958.20 4180.57,1958.76 4179.65,1958.63 4179.20,1957.83 4179.22,1956.34"/>
    </edge>
    <edge id=":1185286753_6" function="internal">
        <lane id=":1185286753_6_0" index="0" allow="delivery bicycle pedestrian" speed="9.73" length="9.50" shape="4173.86,1964.19 4179.22,1956.34"/>
    </edge>
    <edge id=":1185286753_7" function="internal">
        <lane id=":1185286753_7_0" index="0" disallow="tram rail_urban rail rail_electric ship" speed="13.89" length="10.39" shape="4173.86,1964.19 4175.79,1962.08 4177.92,1961.11 4180.25,1961.27 4182.80,1962.56"/>
    </edge>
    <edge id=":1185286753_8" function="internal">
        <lane id=":1185286753_8_0" index="0" disallow="tram rail_urban rail rail_electric ship" speed="13.89" length="2.69" shape="4173.86,1964.19 4175.24,1963.63 4176.16,1963.76 4176.29,1964.00"/>
    </edge>
    <edge id=":1185286753_11" function="internal">
        <lane id=":1185286753_11_0" index="0" speed="13.89" length="2.13" shape="4176.29,1964.00 4176.60,1964.56 4176.59,1966.05"/>
    </edge>
    <edge id=":1185286776_0" function="internal">
        <lane id=":1185286776_0_0" index="0" disallow="tram rail_urban rail rail_electric ship" speed="13.89" length="9.50" shape="3857.97,2085.11 3851.39,2078.26"/>
    </edge>
    <edge id=":1185286776_1" function="internal">
        <lane id=":1185286776_1_0" index="0" disallow="tram rail_urban rail rail_electric ship" speed="13.89" length="5.07" shape="3857.97,2085.11 3856.39,2082.87 3855.89,2080.59"/>
    </edge>
    <edge id=":1185286776_2" function="internal">
        <lane id=":1185286776_2_0" index="0" disallow="tram rail_urban rail rail_electric ship" speed="13.89" length="2.41" shape="3857.97,2085.11 3857.71,2083.64 3858.02,2082.77"/>
    </edge>
    <edge id=":1185286776_9" function="internal">
        <lane id=":1185286776_9_0" index="0" speed="13.89" length="5.26" shape="3855.89,2080.59 3856.48,2078.29 3858.15,2075.94"/>
    </edge>
    <edge id=":1185286776_10" function="internal">
        <lane id=":1185286776_10_0" index="0" speed="13.89" length="2.41" shape="3858.02,2082.77 3858.90,2082.50 3860.35,2082.82"/>
    </edge>
    <edge id=":1185286776_3" function="internal">
        <lane id=":1185286776_3_0" index="0" disallow="tram rail_urban rail rail_electric ship" speed="13.89" length="5.21" shape="3860.56,2078.21 3859.68,2079.41 3859.36,2080.58 3859.58,2081.72 3860.35,2082.82"/>
    </edge>
    <edge id=":1185286776_4" function="internal">
        <lane id=":1185286776_4_0" index="0" disallow="tram rail_urban rail rail_electric ship" speed="13.89" length="10.57" shape="3860.56,2078.21 3858.27,2080.02 3855.99,2080.64 3853.69,2080.05 3851.39,2078.26"/>
    </edge>
    <edge id=":1185286776_5" function="internal">
        <lane id=":1185286776_5_0" index="0" disallow="tram rail_urban rail rail_electric ship" speed="13.89" length="4.82" shape="3860.56,2078.21 3859.11,2078.54 3858.22,2078.28 3857.91,2077.41 3858.15,2075.94"/>
    </edge>
    <edge id=":1185286776_6" function="internal">
        <lane id=":1185286776_6_0" index="0" disallow="tram rail_urban rail rail_electric ship" speed="13.89" length="5.06" shape="3853.77,2075.97 3854.87,2076.83 3855.97,2077.11 3857.06,2076.81 3858.15,2075.94"/>
    </edge>
    <edge id=":1185286776_7" function="internal">
        <lane id=":1185286776_7_0" index="0" disallow="tram rail_urban rail rail_electric ship" speed="13.89" length="9.51" shape="3853.77,2075.97 3860.35,2082.82"/>
    </edge>
    <edge id=":1185286776_8" function="internal">
        <lane id=":1185286776_8_0" index="0" disallow="tram rail_urban rail rail_electric ship" speed="13.89" length="2.41" shape="3853.77,2075.97 3854.03,2077.43 3853.72,2078.30"/>
    </edge>
    <edge id=":1185286776_11" function="internal">
        <lane id=":1185286776_11_0" index="0" speed="13.89" length="2.41" shape="3853.72,2078.30 3852.84,2078.57 3851.39,2078.26"/>
    </edge>
    <edge id=":1185286783_0" function="internal">
        <lane id=":1185286783_0_0" index="0" disallow="tram rail_urban rail rail_electric ship" speed="13.89" length="4.82" shape="3558.60,2117.50 3557.23,2118.09 3556.32,2117.98 3555.85,2117.18 3555.84,2115.70"/>
    </edge>
    <edge id=":1185286831_0" function="internal">
        <lane id=":1185286831_0_0" index="0" disallow="tram rail_urban rail rail_electric ship" speed="13.89" length="8.58" shape="4103.69,2139.37 4095.12,2139.09"/>
    </edge>
    <edge id=":1185286831_1" function="internal">
        <lane id=":1185286831_1_0" index="0" disallow="tram rail_urban rail rail_electric ship" speed="13.89" length="4.82" shape="4103.69,2139.37 4101.28,2138.71 4099.52,2137.36 4099.48,2137.27"/>
    </edge>
    <edge id=":1185286831_2" function="internal">
        <lane id=":1185286831_2_0" index="0" disallow="tram rail_urban rail rail_electric ship" speed="13.89" length="5.79" shape="4103.69,2139.37 4101.43,2139.74 4100.09,2139.25 4099.68,2137.89 4099.83,2137.26"/>
    </edge>
    <edge id=":1185286831_9" function="internal">
        <lane id=":1185286831_9_0" index="0" speed="13.89" length="4.99" shape="4099.48,2137.27 4098.43,2135.31 4097.99,2132.58"/>
    </edge>
    <edge id=":1185286831_10" function="internal">
        <lane id=":1185286831_10_0" index="0" speed="13.89" length="1.65" shape="4099.83,2137.26 4100.21,2135.65"/>
    </edge>
    <edge id=":1185286831_3" function="internal">
        <lane id=":1185286831_3_0" index="0" disallow="tram rail_urban rail rail_electric ship" speed="13.89" length="3.36" shape="4101.29,2132.46 4100.21,2135.65"/>
    </edge>
    <edge id=":1185286831_4" function="internal">
        <lane id=":1185286831_4_0" index="0" disallow="tram rail_urban rail rail_electric ship" speed="13.89" length="10.31" shape="4101.29,2132.46 4100.99,2135.27 4099.86,2137.31 4097.90,2138.58 4095.12,2139.09"/>
    </edge>
    <edge id=":1185286831_5" function="internal">
        <lane id=":1185286831_5_0" index="0" disallow="tram rail_urban rail rail_electric ship" speed="13.89" length="4.82" shape="4101.29,2132.46 4100.51,2133.73 4099.70,2134.17 4098.86,2133.79 4097.99,2132.58"/>
    </edge>
    <edge id=":1185286831_6" function="internal">
        <lane id=":1185286831_6_0" index="0" disallow="tram rail_urban rail rail_electric ship" speed="13.89" length="5.00" shape="4095.00,2135.79 4096.35,2135.55 4097.30,2134.93 4097.84,2133.94 4097.99,2132.58"/>
    </edge>
    <edge id=":1185286831_7" function="internal">
        <lane id=":1185286831_7_0" index="0" disallow="tram rail_urban rail rail_electric ship" speed="13.89" length="5.21" shape="4095.00,2135.79 4100.21,2135.65"/>
    </edge>
    <edge id=":1185286831_8" function="internal">
        <lane id=":1185286831_8_0" index="0" disallow="tram rail_urban rail rail_electric ship" speed="13.89" length="2.58" shape="4095.00,2135.79 4096.27,2136.57 4096.71,2137.38 4096.64,2137.53"/>
    </edge>
    <edge id=":1185286831_11" function="internal">
        <lane id=":1185286831_11_0" index="0" speed="13.89" length="2.24" shape="4096.64,2137.53 4096.33,2138.22 4095.12,2139.09"/>
    </edge>
    <edge id=":1185286872_0" function="internal">
        <lane id=":1185286872_0_0" index="0" disallow="tram rail_urban rail rail_electric ship" speed="13.89" length="5.01" shape="3993.24,1859.58 3992.03,1858.93 3990.90,1858.83 3989.86,1859.28 3988.91,1860.26"/>
    </edge>
    <edge id=":1185286872_1" function="internal">
        <lane id=":1185286872_1_0" index="0" disallow="tram rail_urban rail rail_electric ship" speed="13.89" length="9.50" shape="3993.24,1859.58 3985.56,1853.98"/>
    </edge>
    <edge id=":1185286872_2" function="internal">
        <lane id=":1185286872_2_0" index="0" disallow="tram rail_urban rail rail_electric ship" speed="13.89" length="2.41" shape="3993.24,1859.58 3992.72,1858.18 3992.88,1857.27"/>
    </edge>
    <edge id=":1185286872_9" function="internal">
        <lane id=":1185286872_9_0" index="0" speed="13.89" length="2.41" shape="3992.88,1857.27 3993.70,1856.85 3995.18,1856.91"/>
    </edge>
    <edge id=":1185286872_3" function="internal">
        <lane id=":1185286872_3_0" index="0" disallow="tram rail_urban rail rail_electric ship" speed="13.89" length="9.50" shape="3987.51,1851.31 3995.18,1856.91"/>
    </edge>
    <edge id=":1185286872_4" function="internal">
        <lane id=":1185286872_4_0" index="0" disallow="tram rail_urban rail rail_electric ship" speed="13.89" length="5.27" shape="3987.51,1851.31 3989.53,1853.28 3990.43,1855.43 3990.42,1855.54"/>
    </edge>
    <edge id=":1185286872_5" function="internal">
        <lane id=":1185286872_5_0" index="0" disallow="tram rail_urban rail rail_electric ship" speed="13.89" length="2.41" shape="3987.51,1851.31 3988.02,1852.71 3987.87,1853.62"/>
    </edge>
    <edge id=":1185286872_10" function="internal">
        <lane id=":1185286872_10_0" index="0" speed="13.89" length="5.06" shape="3990.42,1855.54 3990.23,1857.76 3988.91,1860.26"/>
    </edge>
    <edge id=":1185286872_11" function="internal">
        <lane id=":1185286872_11_0" index="0" speed="13.89" length="2.41" shape="3987.87,1853.62 3987.05,1854.04 3985.56,1853.98"/>
    </edge>
    <edge id=":1185286872_6" function="internal">
        <lane id=":1185286872_6_0" index="0" disallow="tram rail_urban rail rail_electric ship" speed="13.89" length="5.02" shape="3986.23,1858.33 3986.88,1857.11 3986.98,1855.98 3986.54,1854.93 3985.56,1853.98"/>
    </edge>
    <edge id=":1185286872_7" function="internal">
        <lane id=":1185286872_7_0" index="0" disallow="tram rail_urban rail rail_electric ship" speed="13.89" length="10.35" shape="3986.23,1858.33 3988.20,1856.29 3990.35,1855.37 3992.68,1855.58 3995.18,1856.91"/>
    </edge>
    <edge id=":1185286872_8" function="internal">
        <lane id=":1185286872_8_0" index="0" disallow="tram rail_urban rail rail_electric ship" speed="13.89" length="4.82" shape="3986.23,1858.33 3987.63,1857.81 3988.54,1857.96 3988.96,1858.78 3988.91,1860.26"/>
    </edge>
    <edge id=":1185287339_0" function="internal">
        <lane id=":1185287339_0_0" index="0" disallow="tram rail_urban rail rail_electric ship" speed="13.89" length="9.51" shape="3919.12,2046.11 3912.45,2052.88"/>
    </edge>
    <edge id=":1185287339_1" function="internal">
        <lane id=":1185287339_1_0" index="0" disallow="tram rail_urban rail rail_electric ship" speed="13.89" length="5.22" shape="3919.12,2046.11 3916.90,2047.79 3914.64,2048.36 3914.54,2048.34"/>
    </edge>
    <edge id=":1185287339_2" function="internal">
        <lane id=":1185287339_2_0" index="0" disallow="tram rail_urban rail rail_electric ship" speed="13.89" length="2.41" shape="3919.12,2046.11 3917.66,2046.42 3916.79,2046.13"/>
    </edge>
    <edge id=":1185287339_9" function="internal">
        <lane id=":1185287339_9_0" index="0" speed="13.89" length="5.11" shape="3914.54,2048.34 3912.34,2047.83 3910.01,2046.18"/>
    </edge>
    <edge id=":1185287339_10" function="internal">
        <lane id=":1185287339_10_0" index="0" speed="13.89" length="2.41" shape="3916.79,2046.13 3916.49,2045.26 3916.77,2043.80"/>
    </edge>
    <edge id=":1185287339_3" function="internal">
        <lane id=":1185287339_3_0" index="0" disallow="tram rail_urban rail rail_electric ship" speed="13.89" length="5.11" shape="3912.26,2043.77 3913.43,2044.60 3914.57,2044.88 3915.68,2044.61 3916.77,2043.80"/>
    </edge>
    <edge id=":1185287339_4" function="internal">
        <lane id=":1185287339_4_0" index="0" disallow="tram rail_urban rail rail_electric ship" speed="13.89" length="10.46" shape="3912.26,2043.77 3914.06,2046.01 3914.70,2048.28 3914.16,2050.57 3912.45,2052.88"/>
    </edge>
    <edge id=":1185287339_5" function="internal">
        <lane id=":1185287339_5_0" index="0" disallow="tram rail_urban rail rail_electric ship" speed="13.89" length="4.82" shape="3912.26,2043.77 3912.60,2045.22 3912.34,2046.10 3911.47,2046.42 3910.01,2046.18"/>
    </edge>
    <edge id=":1185287339_6" function="internal">
        <lane id=":1185287339_6_0" index="0" disallow="tram rail_urban rail rail_electric ship" speed="13.89" length="5.03" shape="3910.10,2050.57 3910.92,2049.45 3911.18,2048.35 3910.87,2047.26 3910.01,2046.18"/>
    </edge>
    <edge id=":1185287339_7" function="internal">
        <lane id=":1185287339_7_0" index="0" disallow="tram rail_urban rail rail_electric ship" speed="13.89" length="9.50" shape="3910.10,2050.57 3916.77,2043.80"/>
    </edge>
    <edge id=":1185287339_8" function="internal">
        <lane id=":1185287339_8_0" index="0" disallow="tram rail_urban rail rail_electric ship" speed="13.89" length="2.41" shape="3910.10,2050.57 3911.55,2050.26 3912.43,2050.55"/>
    </edge>
    <edge id=":1185287339_11" function="internal">
        <lane id=":1185287339_11_0" index="0" speed="13.89" length="2.41" shape="3912.43,2050.55 3912.73,2051.42 3912.45,2052.88"/>
    </edge>
    <edge id=":1185287540_0" function="internal">
        <lane id=":1185287540_0_0" index="0" disallow="tram rail_urban rail rail_electric ship" speed="13.89" length="4.97" shape="4010.80,2053.23 4010.54,2051.90 4009.92,2050.96 4008.93,2050.42 4007.58,2050.26"/>
    </edge>
    <edge id=":1185287540_1" function="internal">
        <lane id=":1185287540_1_0" index="0" disallow="tram rail_urban rail rail_electric ship" speed="13.89" length="6.73" shape="4010.80,2053.23 4010.68,2046.51"/>
    </edge>
    <edge id=":1185287540_2" function="internal">
        <lane id=":1185287540_2_0" index="0" disallow="tram rail_urban rail rail_electric ship" speed="13.89" length="2.52" shape="4010.80,2053.23 4011.56,2051.96 4012.36,2051.50 4012.47,2051.55"/>
    </edge>
    <edge id=":1185287540_9" function="internal">
        <lane id=":1185287540_9_0" index="0" speed="13.89" length="2.30" shape="4012.47,2051.55 4013.21,2051.87 4014.10,2053.06"/>
    </edge>
    <edge id=":1185287540_3" function="internal">
        <lane id=":1185287540_3_0" index="0" disallow="tram rail_urban rail rail_electric ship" speed="13.89" length="6.34" shape="4013.98,2046.73 4014.10,2053.06"/>
    </edge>
    <edge id=":1185287540_4" function="internal">
        <lane id=":1185287540_4_0" index="0" disallow="tram rail_urban rail rail_electric ship" speed="13.89" length="3.20" shape="4013.98,2046.73 4013.49,2048.21 4012.26,2049.30"/>
    </edge>
    <edge id=":1185287540_5" function="internal">
        <lane id=":1185287540_5_0" index="0" disallow="tram rail_urban rail rail_electric ship" speed="13.89" length="2.31" shape="4013.98,2046.73 4013.07,2047.91 4012.31,2048.22"/>
    </edge>
    <edge id=":1185287540_10" function="internal">
        <lane id=":1185287540_10_0" index="0" speed="13.89" length="4.81" shape="4012.26,2049.30 4010.30,2049.98 4007.58,2050.26"/>
    </edge>
    <edge id=":1185287540_11" function="internal">
        <lane id=":1185287540_11_0" index="0" speed="13.89" length="2.51" shape="4012.31,2048.22 4012.22,2048.26 4011.42,2047.80 4010.68,2046.51"/>
    </edge>
    <edge id=":1185287540_6" function="internal">
        <lane id=":1185287540_6_0" index="0" disallow="tram rail_urban rail rail_electric ship" speed="13.89" length="3.26" shape="4007.50,2046.96 4008.88,2046.90 4009.87,2046.81 4010.47,2046.67 4010.68,2046.51"/>
    </edge>
    <edge id=":1185287540_7" function="internal">
        <lane id=":1185287540_7_0" index="0" disallow="tram rail_urban rail rail_electric ship" speed="13.89" length="10.19" shape="4007.50,2046.96 4010.26,2047.28 4012.28,2048.41 4013.56,2050.33 4014.10,2053.06"/>
    </edge>
    <edge id=":1185287540_8" function="internal">
        <lane id=":1185287540_8_0" index="0" disallow="tram rail_urban rail rail_electric ship" speed="13.89" length="4.82" shape="4007.50,2046.96 4008.76,2047.75 4009.19,2048.57 4008.80,2049.40 4007.58,2050.26"/>
    </edge>
    <edge id=":1185287552_0" function="internal">
        <lane id=":1185287552_0_0" index="0" disallow="tram rail_urban rail rail_electric ship" speed="13.89" length="5.01" shape="4014.53,1875.11 4013.32,1874.47 4012.19,1874.37 4011.15,1874.82 4010.20,1875.81"/>
    </edge>
    <edge id=":1185287552_1" function="internal">
        <lane id=":1185287552_1_0" index="0" disallow="tram rail_urban rail rail_electric ship" speed="13.89" length="9.50" shape="4014.53,1875.11 4006.86,1869.51"/>
    </edge>
    <edge id=":1185287552_2" function="internal">
        <lane id=":1185287552_2_0" index="0" disallow="tram rail_urban rail rail_electric ship" speed="13.89" length="2.41" shape="4014.53,1875.11 4014.02,1873.72 4014.17,1872.81"/>
    </edge>
    <edge id=":1185287552_9" function="internal">
        <lane id=":1185287552_9_0" index="0" speed="13.89" length="2.41" shape="4014.17,1872.81 4014.99,1872.38 4016.47,1872.45"/>
    </edge>
    <edge id=":1185287552_3" function="internal">
        <lane id=":1185287552_3_0" index="0" disallow="tram rail_urban rail rail_electric ship" speed="13.89" length="9.50" shape="4008.80,1866.85 4016.47,1872.45"/>
    </edge>
    <edge id=":1185287552_4" function="internal">
        <lane id=":1185287552_4_0" index="0" disallow="tram rail_urban rail rail_electric ship" speed="13.89" length="5.26" shape="4008.80,1866.85 4010.82,1868.82 4011.72,1870.96 4011.71,1871.08"/>
    </edge>
    <edge id=":1185287552_5" function="internal">
        <lane id=":1185287552_5_0" index="0" disallow="tram rail_urban rail rail_electric ship" speed="13.89" length="2.41" shape="4008.80,1866.85 4009.31,1868.25 4009.16,1869.15"/>
    </edge>
    <edge id=":1185287552_10" function="internal">
        <lane id=":1185287552_10_0" index="0" speed="13.89" length="5.06" shape="4011.71,1871.08 4011.52,1873.29 4010.20,1875.81"/>
    </edge>
    <edge id=":1185287552_11" function="internal">
        <lane id=":1185287552_11_0" index="0" speed="13.89" length="2.41" shape="4009.16,1869.15 4008.34,1869.58 4006.86,1869.51"/>
    </edge>
    <edge id=":1185287552_6" function="internal">
        <lane id=":1185287552_6_0" index="0" disallow="tram rail_urban rail rail_electric ship" speed="13.89" length="5.03" shape="4007.52,1873.88 4008.16,1872.66 4008.27,1871.52 4007.83,1870.47 4006.86,1869.51"/>
    </edge>
    <edge id=":1185287552_7" function="internal">
        <lane id=":1185287552_7_0" index="0" disallow="tram rail_urban rail rail_electric ship" speed="13.89" length="10.36" shape="4007.52,1873.88 4009.49,1871.83 4011.64,1870.91 4013.96,1871.11 4016.47,1872.45"/>
    </edge>
    <edge id=":1185287552_8" function="internal">
        <lane id=":1185287552_8_0" index="0" disallow="tram rail_urban rail rail_electric ship" speed="13.89" length="4.82" shape="4007.52,1873.88 4008.91,1873.36 4009.82,1873.51 4010.25,1874.32 4010.20,1875.81"/>
    </edge>
    <edge id=":1185288056_0" function="internal">
        <lane id=":1185288056_0_0" index="0" disallow="tram rail_urban rail rail_electric ship" speed="13.89" length="4.82" shape="4137.04,2319.74 4136.31,2321.04 4135.52,2321.51 4134.66,2321.16 4133.75,2319.99"/>
    </edge>
    <edge id=":1185288175_0" function="internal">
        <lane id=":1185288175_0_0" index="0" disallow="tram rail_urban rail rail_electric ship" speed="13.89" length="9.50" shape="3892.89,1854.27 3887.26,1861.92"/>
    </edge>
    <edge id=":1185288175_1" function="internal">
        <lane id=":1185288175_1_0" index="0" disallow="tram rail_urban rail rail_electric ship" speed="13.89" length="5.25" shape="3892.89,1854.27 3890.92,1856.27 3888.77,1857.16 3888.66,1857.15"/>
    </edge>
    <edge id=":1185288175_2" function="internal">
        <lane id=":1185288175_2_0" index="0" disallow="tram rail_urban rail rail_electric ship" speed="13.89" length="2.41" shape="3892.89,1854.27 3891.49,1854.78 3890.58,1854.62"/>
    </edge>
    <edge id=":1185288175_9" function="internal">
        <lane id=":1185288175_9_0" index="0" speed="13.89" length="5.08" shape="3888.66,1857.15 3886.43,1856.95 3883.91,1855.64"/>
    </edge>
    <edge id=":1185288175_10" function="internal">
        <lane id=":1185288175_10_0" index="0" speed="13.89" length="2.41" shape="3890.58,1854.62 3890.16,1853.80 3890.23,1852.31"/>
    </edge>
    <edge id=":1185288175_3" function="internal">
        <lane id=":1185288175_3_0" index="0" disallow="tram rail_urban rail rail_electric ship" speed="13.89" length="5.06" shape="3885.82,1852.95 3887.07,1853.60 3888.22,1853.71 3889.27,1853.28 3890.23,1852.31"/>
    </edge>
    <edge id=":1185288175_4" function="internal">
        <lane id=":1185288175_4_0" index="0" disallow="tram rail_urban rail rail_electric ship" speed="13.89" length="10.39" shape="3885.82,1852.95 3887.89,1854.92 3888.82,1857.07 3888.61,1859.41 3887.26,1861.92"/>
    </edge>
    <edge id=":1185288175_5" function="internal">
        <lane id=":1185288175_5_0" index="0" disallow="tram rail_urban rail rail_electric ship" speed="13.89" length="4.82" shape="3885.82,1852.95 3886.35,1854.34 3886.21,1855.25 3885.39,1855.68 3883.91,1855.64"/>
    </edge>
    <edge id=":1185288175_6" function="internal">