<?xml version="1.0" encoding="UTF-8"?>

<!-- generated on Tue May  2 00:05:41 2017 by SUMO polyconvert Version 0.25.0
<?xml version="1.0" encoding="UTF-8"?>

<configuration xmlns:xsi="http://www.w3.org/2001/XMLSchema-instance" xsi:noNamespaceSchemaLocation="http://sumo.dlr.de/xsd/polyconvertConfiguration.xsd">

    <input>
        <net-file value="map.net.xml"/>
        <osm-files value="map.osm"/>
        <type-file value="osmPolyconvert.typ.xml"/>
    </input>

    <output>
        <output-file value="map.poly.xml"/>
    </output>

    <processing>
        <poi-layer-offset value="5"/>
    </processing>

</configuration>
-->

<additional xmlns:xsi="http://www.w3.org/2001/XMLSchema-instance" xsi:noNamespaceSchemaLocation="http://sumo.dlr.de/xsd/additional_file.xsd">
    <location netOffset="-583565.26,-4508248.67" convBoundary="-79.99,-946.74,5491.90,8264.46" origBoundary="-74.012390,40.710904,-73.944352,40.794789" projParameter="+proj=utm +zone=18 +ellps=WGS84 +datum=WGS84 +units=m +no_defs"/>

    <poly id="108156090" type="amenity" color="237,199,199" fill="1" layer="-1.00" shape="880.48,1318.38 765.45,1066.44 1034.74,901.22 898.31,686.52 1089.11,565.24 1113.75,604.57 1179.98,561.82 1195.41,585.77 1129.08,628.73 1163.81,683.97 1231.65,640.04 1315.95,772.22 1245.95,815.33 1297.66,893.00 1359.81,855.96 1436.68,978.31 1310.72,1059.92 1378.01,1163.72 1187.16,1265.81 1046.62,1336.83 992.37,1250.49 880.48,1318.38"/>
    <poly id="110310945" type="water" color="181,209,209" fill="1" layer="-4.00" shape="1093.10,1119.08 1090.90,1118.87 1088.83,1118.11 1087.02,1116.83 1085.61,1115.14 1084.69,1113.14 1084.32,1110.97 1084.52,1108.78 1085.29,1106.72 1086.56,1104.93 1088.27,1103.51 1090.28,1102.60 1092.46,1102.23 1094.66,1102.44 1096.73,1103.20 1098.52,1104.47 1099.93,1106.17 1100.85,1108.16 1101.22,1110.33 1101.02,1112.52 1100.25,1114.58 1098.98,1116.38 1097.28,1117.78 1095.27,1118.70 1093.10,1119.08"/>
    <poly id="155075464" type="building" color="255,230,230" fill="1" layer="-1.00" shape="1028.12,974.74 1009.55,986.63 1042.53,1037.74 1058.45,1027.56 1059.52,1029.24 1084.52,1013.52 1083.32,1011.63 1085.61,1010.17 1075.59,994.63 1052.88,958.54 1027.84,974.29 1028.12,974.74"/>
    <poly id="171562481" type="tourism" color="207,245,201" fill="1" layer="-2.00" shape="692.72,1017.05 679.35,1045.82 679.12,1046.42 678.98,1046.99 678.96,1047.47 679.01,1047.86 679.14,1048.17 679.45,1048.52 679.97,1048.89 680.69,1049.27 716.14,1064.70 716.73,1064.90 716.95,1064.95 717.08,1064.97 717.21,1064.95 717.35,1064.84 717.40,1064.74 717.44,1064.54 717.45,1064.32 717.40,1063.96 697.66,1015.75 692.72,1017.05"/>
    <poly id="187526597" type="leisure" color="207,245,201" fill="1" layer="-2.00" shape="392.93,1001.60 407.46,999.67 402.16,960.04 387.64,961.98 392.93,1001.60"/>
    <poly id="187526597#1" type="sport" color="79,230,125" fill="1" layer="-2.00" shape="392.93,1001.60 407.46,999.67 402.16,960.04 387.64,961.98 392.93,1001.60"/>
    <poly id="197063185" type="leisure" color="207,245,201" fill="1" layer="-2.00" shape="388.24,998.90 382.61,953.81 368.70,955.54 374.32,1000.62 378.89,1000.05 388.24,998.90"/>
    <poly id="197063185#1" type="sport" color="79,230,125" fill="1" layer="-2.00" shape="388.24,998.90 382.61,953.81 368.70,955.54 374.32,1000.62 378.89,1000.05 388.24,998.90"/>
    <poly id="197063186" type="leisure" color="207,245,201" fill="1" layer="-2.00" shape="370.99,1007.32 373.37,1007.11 375.64,1006.57 377.25,1005.01 378.51,1003.34 378.98,1001.65 378.89,1000.05 388.24,998.90 389.12,1006.96 420.53,1002.33 422.36,1015.86 416.97,1013.90 409.98,1014.74 362.94,1020.42 370.99,1007.32"/>
    <poly id="197064614" type="tourism" color="207,245,201" fill="1" layer="-2.00" shape="312.88,1026.45 358.93,1020.90 362.94,1020.42 409.98,1014.74 416.97,1013.90 422.36,1015.86 420.53,1002.33 418.53,986.51 413.82,987.09 413.51,983.12 408.35,983.88 403.48,951.10 382.61,953.81 368.70,955.54 364.17,956.06 329.13,960.47 305.34,963.47 312.88,1026.45"/>
    <poly id="197065067" type="leisure" color="207,245,201" fill="1" layer="-2.00" shape="346.91,1013.48 358.52,1000.32 361.11,1002.58 349.49,1015.74 346.91,1013.48"/>
    <poly id="197065067#1" type="sport" color="79,230,125" fill="1" layer="-2.00" shape="346.91,1013.48 358.52,1000.32 361.11,1002.58 349.49,1015.74 346.91,1013.48"/>
    <poly id="213909916" type="building" color="255,230,230" fill="1" layer="-1.00" shape="170.66,872.68 169.36,872.50 168.22,871.86 167.41,870.89 166.99,869.93 161.63,824.51 161.84,823.12 162.28,822.22 163.18,821.19 164.42,820.57 256.76,810.12 258.02,810.40 258.95,810.91 259.76,811.87 260.43,813.08 265.48,859.07 265.23,860.26 264.69,861.27 263.71,862.07 262.60,862.49 170.66,872.68"/>
    <poly id="220892650" type="parking" color="184,184,179" fill="1" layer="-1.00" shape="1227.41,2037.86 1200.55,2052.16 1207.36,2064.86 1234.23,2050.55 1227.41,2037.86"/>
    <poly id="225016979" type="amenity" color="237,199,199" fill="1" layer="-1.00" shape="627.97,1449.08 626.77,1455.10 624.90,1464.45 627.97,1449.08"/>
    <poly id="227073696" type="amenity" color="237,199,199" fill="1" layer="-1.00" shape="171.24,1270.32 193.84,1267.23 191.06,1247.04 168.45,1250.13 171.24,1270.32"/>
    <poly id="227073696#1" type="building" color="255,230,230" fill="1" layer="-1.00" shape="171.24,1270.32 193.84,1267.23 191.06,1247.04 168.45,1250.13 171.24,1270.32"/>
    <poly id="22899302" type="tourism" color="207,245,201" fill="1" layer="-2.00" shape="1164.07,985.76 926.77,1136.75 996.18,1250.29 1235.47,1099.84 1164.07,985.76"/>
    <poly id="22961817" type="tourism" color="207,245,201" fill="1" layer="-2.00" shape="631.29,2029.95 639.71,2013.64 649.08,1995.50 624.67,1995.22 599.06,1994.93 616.01,2013.36 631.29,2029.95"/>
    <poly id="22961821" type="tourism" color="207,245,201" fill="1" layer="-2.00" shape="417.34,1992.70 423.35,2047.52 485.00,2049.20 504.31,2049.72 504.29,2037.92 504.22,1994.98 480.29,1994.36 417.34,1992.70"/>
    <poly id="238142698" type="parking" color="184,184,179" fill="1" layer="-1.00" shape="1379.61,2056.63 1386.44,2053.33 1374.21,2030.54 1371.58,2025.37 1359.85,2003.45 1346.22,2010.80 1359.23,2035.11 1366.12,2031.41 1379.61,2056.63"/>
    <poly id="239988114" type="tourism" color="207,245,201" fill="1" layer="-2.00" shape="710.73,994.82 720.61,1018.02 734.14,995.28 714.29,987.62 710.73,994.82"/>
    <poly id="239988118" type="tourism" color="207,245,201" fill="1" layer="-2.00" shape="597.66,664.94 613.43,659.43 584.63,619.39 597.66,664.94"/>
    <poly id="239988120" type="tourism" color="207,245,201" fill="1" layer="-2.00" shape="890.19,1534.34 903.46,1505.46 915.04,1480.24 929.01,1486.50 938.91,1503.36 929.39,1513.58 923.80,1530.83 928.01,1541.12 912.62,1538.37 890.19,1534.34"/>
    <poly id="240073954" type="parking" color="184,184,179" fill="1" layer="-1.00" shape="1474.26,1942.63 1464.83,1947.61 1478.65,1973.59 1484.13,1970.70 1488.08,1968.62 1474.26,1942.63"/>
    <poly id="244977216" type="tourism" color="207,245,201" fill="1" layer="-2.00" shape="682.04,896.26 706.21,881.80 695.55,864.85 722.04,848.48 703.54,818.77 663.28,844.62 682.04,896.26"/>
    <poly id="244977217" type="leisure" color="207,245,201" fill="1" layer="-2.00" shape="607.18,862.79 607.73,847.92 631.61,845.36 607.10,864.25 607.18,862.79"/>
    <poly id="244977966" type="leisure" color="207,245,201" fill="1" layer="-2.00" shape="804.93,1189.82 811.28,1185.64 819.48,1181.13 796.96,1174.68 801.22,1182.83 804.93,1189.82"/>
    <poly id="244978444" type="tourism" color="207,245,201" fill="1" layer="-2.00" shape="667.02,1004.93 680.13,1010.22 685.77,993.11 676.80,994.07 672.76,992.38 667.02,1004.93"/>
    <poly id="247838585" type="building" color="255,230,230" fill="1" layer="-1.00" shape="1592.56,762.97 1592.72,762.11 1583.29,722.54 1582.79,721.80 1582.04,721.71 1552.80,739.38 1560.75,751.34 1561.74,752.92 1566.67,760.74 1560.31,764.75 1568.21,777.29 1574.89,773.36 1587.98,765.66 1592.56,762.97"/>
    <poly id="247838586" type="building" color="255,230,230" fill="1" layer="-1.00" shape="1434.31,813.82 1422.55,821.20 1443.01,853.78 1454.77,846.38 1434.31,813.82"/>
    <poly id="247838594" type="building" color="255,230,230" fill="1" layer="-1.00" shape="1508.82,767.25 1493.96,776.61 1503.95,792.45 1506.63,790.76 1508.22,793.30 1514.09,789.60 1518.97,797.34 1525.27,793.36 1508.82,767.25"/>
    <poly id="247838603" type="building" color="255,230,230" fill="1" layer="-1.00" shape="1514.12,763.90 1508.82,767.25 1525.27,793.36 1527.17,796.37 1532.48,793.03 1514.37,764.30 1514.12,763.90"/>
    <poly id="247838606" type="building" color="255,230,230" fill="1" layer="-1.00" shape="1521.16,760.03 1514.37,764.30 1532.48,793.03 1534.90,796.87 1541.68,792.58 1529.97,773.99 1521.16,760.03"/>
    <poly id="247838607" type="building" color="255,230,230" fill="1" layer="-1.00" shape="1529.97,773.99 1536.47,769.91 1527.41,755.52 1520.91,759.62 1521.16,760.03 1529.97,773.99"/>
    <poly id="247838607#1" type="tourism" color="207,245,201" fill="1" layer="-2.00" shape="1529.97,773.99 1536.47,769.91 1527.41,755.52 1520.91,759.62 1521.16,760.03 1529.97,773.99"/>
    <poly id="247838620" type="building" color="255,230,230" fill="1" layer="-1.00" shape="1552.80,739.38 1546.72,743.34 1555.31,756.98 1561.74,752.92 1560.75,751.34 1552.80,739.38"/>
    <poly id="247838624" type="building" color="255,230,230" fill="1" layer="-1.00" shape="1452.17,802.60 1434.31,813.82 1454.77,846.38 1472.63,835.16 1452.17,802.60"/>
    <poly id="247838625" type="building" color="255,230,230" fill="1" layer="-1.00" shape="1517.90,798.21 1513.56,800.95 1494.63,812.90 1498.52,819.06 1521.79,804.39 1517.90,798.21"/>
    <poly id="247838626" type="building" color="255,230,230" fill="1" layer="-1.00" shape="1543.38,811.88 1545.48,810.57 1536.54,796.39 1525.05,803.63 1524.47,802.71 1521.79,804.39 1498.52,819.06 1511.88,840.27 1547.23,817.99 1543.38,811.88"/>
    <poly id="247838627" type="building" color="255,230,230" fill="1" layer="-1.00" shape="1563.99,836.45 1566.33,840.16 1573.67,835.52 1574.06,833.24 1567.45,822.77 1554.78,830.77 1548.49,820.79 1550.33,819.62 1548.71,817.05 1547.23,817.99 1511.88,840.27 1524.98,861.04 1542.98,849.69 1563.99,836.45"/>
    <poly id="247838628" type="building" color="255,230,230" fill="1" layer="-1.00" shape="1542.98,849.69 1524.98,861.04 1529.59,868.36 1547.59,857.01 1542.98,849.69"/>
    <poly id="247838629" type="building" color="255,230,230" fill="1" layer="-1.00" shape="1478.63,896.18 1480.62,894.96 1481.75,896.79 1487.79,893.08 1489.64,896.10 1504.63,886.68 1498.15,876.34 1464.65,897.38 1471.15,907.71 1481.66,901.11 1478.63,896.18"/>
    <poly id="247838630" type="building" color="255,230,230" fill="1" layer="-1.00" shape="1563.87,846.74 1547.59,857.01 1529.59,868.36 1534.58,876.28 1568.87,854.67 1563.87,846.74"/>
    <poly id="247838631" type="building" color="255,230,230" fill="1" layer="-1.00" shape="1579.50,866.44 1571.16,853.21 1568.87,854.67 1534.58,876.28 1542.93,889.51 1560.80,878.24 1579.50,866.44"/>
    <poly id="247838632" type="building" color="255,230,230" fill="1" layer="-1.00" shape="1605.49,920.69 1601.36,914.12 1600.43,912.64 1596.93,914.85 1588.01,900.71 1591.73,898.37 1578.08,876.73 1580.87,874.94 1585.76,871.83 1582.69,864.44 1579.50,866.44 1560.80,878.24 1563.55,882.60 1556.98,886.74 1558.56,889.24 1547.25,896.37 1578.84,946.48 1587.46,941.04 1589.62,944.46 1594.31,941.50 1594.92,942.48 1597.26,941.01 1594.49,936.60 1604.35,930.39 1600.30,923.96 1603.08,922.20 1605.49,920.69"/>
    <poly id="247838633" type="building" color="255,230,230" fill="1" layer="-1.00" shape="1527.26,920.94 1526.47,921.45 1494.01,941.83 1498.45,948.89 1531.69,928.01 1527.26,920.94"/>
    <poly id="247838634" type="building" color="255,230,230" fill="1" layer="-1.00" shape="1535.98,934.83 1531.69,928.01 1498.45,948.89 1497.63,949.40 1501.91,956.23 1519.61,945.12 1535.98,934.83"/>
    <poly id="247838635" type="building" color="255,230,230" fill="1" layer="-1.00" shape="1535.98,934.83 1519.61,945.12 1524.14,952.32 1540.51,942.04 1535.98,934.83"/>
    <poly id="247838636" type="building" color="255,230,230" fill="1" layer="-1.00" shape="1540.51,942.04 1524.14,952.32 1504.32,964.77 1500.94,959.39 1495.57,962.76 1497.04,965.12 1502.03,965.46 1504.12,974.70 1544.92,949.07 1540.51,942.04"/>
    <poly id="247838660" type="building" color="255,230,230" fill="1" layer="-1.00" shape="1429.84,853.19 1424.96,856.26 1418.76,860.15 1414.71,853.70 1393.47,867.04 1401.50,879.83 1433.83,859.53 1429.84,853.19"/>
    <poly id="247838661" type="building" color="255,230,230" fill="1" layer="-1.00" shape="1432.79,864.49 1439.18,860.47 1437.24,857.40 1433.83,859.53 1401.50,879.83 1405.63,886.41 1434.98,867.97 1432.79,864.49"/>
    <poly id="247838664" type="building" color="255,230,230" fill="1" layer="-1.00" shape="1434.98,867.97 1405.63,886.41 1409.40,892.40 1438.74,873.97 1434.98,867.97"/>
    <poly id="247838665" type="building" color="255,230,230" fill="1" layer="-1.00" shape="1439.24,873.66 1438.74,873.97 1409.40,892.40 1413.78,899.38 1443.62,880.64 1439.24,873.66"/>
    <poly id="247838666" type="building" color="255,230,230" fill="1" layer="-1.00" shape="1449.66,885.19 1445.90,879.21 1443.62,880.64 1413.78,899.38 1417.54,905.36 1447.24,886.71 1449.66,885.19"/>
    <poly id="247838667" type="building" color="255,230,230" fill="1" layer="-1.00" shape="1447.24,886.71 1417.54,905.36 1421.83,912.19 1451.52,893.53 1447.24,886.71"/>
    <poly id="247838668" type="building" color="255,230,230" fill="1" layer="-1.00" shape="1462.18,904.33 1454.30,891.79 1451.52,893.53 1421.83,912.19 1429.70,924.73 1457.83,907.06 1462.18,904.33"/>
    <poly id="247838670" type="building" color="255,230,230" fill="1" layer="-1.00" shape="1457.83,907.06 1429.70,924.73 1433.59,930.92 1461.71,913.25 1457.83,907.06"/>
    <poly id="247838671" type="building" color="255,230,230" fill="1" layer="-1.00" shape="1469.60,908.30 1461.71,913.25 1433.59,930.92 1438.15,938.19 1474.16,915.56 1469.77,908.57 1469.60,908.30"/>
    <poly id="247838674" type="building" color="255,230,230" fill="1" layer="-1.00" shape="1497.21,953.03 1493.13,946.53 1457.07,969.18 1461.16,975.67 1489.40,957.94 1497.21,953.03"/>
    <poly id="247838675" type="building" color="255,230,230" fill="1" layer="-1.00" shape="1493.57,964.59 1489.40,957.94 1461.16,975.67 1465.34,982.32 1465.68,982.11 1493.57,964.59"/>
    <poly id="247838678" type="building" color="255,230,230" fill="1" layer="-1.00" shape="1497.87,970.16 1494.14,964.23 1493.57,964.59 1465.68,982.11 1469.40,988.04 1496.50,971.02 1497.87,970.16"/>
    <poly id="247838680" type="building" color="255,230,230" fill="1" layer="-1.00" shape="1500.64,977.60 1496.50,971.02 1469.40,988.04 1473.54,994.63 1499.55,978.29 1500.64,977.60"/>
    <poly id="247838694" type="building" color="255,230,230" fill="1" layer="-1.00" shape="1422.55,821.20 1416.40,825.06 1417.23,826.37 1426.85,841.68 1428.77,844.74 1420.85,849.73 1424.96,856.26 1429.84,853.19 1434.67,850.16 1438.65,856.50 1443.01,853.78 1422.55,821.20"/>
    <poly id="247838696" type="building" color="255,230,230" fill="1" layer="-1.00" shape="1491.25,943.57 1494.01,941.83 1526.47,921.45 1504.63,886.68 1489.64,896.10 1481.66,901.11 1471.15,907.71 1469.77,908.57 1474.16,915.56 1438.15,938.19 1457.07,969.18 1493.13,946.53 1491.25,943.57"/>
    <poly id="247838697" type="building" color="255,230,230" fill="1" layer="-1.00" shape="1418.20,851.50 1416.22,848.35 1426.85,841.68 1417.23,826.37 1381.87,848.58 1393.47,867.04 1414.71,853.70 1418.20,851.50"/>
    <poly id="247838698" type="building" color="255,230,230" fill="1" layer="-1.00" shape="1508.40,1000.96 1509.79,1000.09 1503.41,989.94 1505.90,988.39 1499.55,978.29 1473.54,994.63 1487.19,1016.36 1490.72,1017.62 1511.23,1014.27 1508.81,1002.92 1508.40,1000.96"/>
    <poly id="247838716" type="building" color="255,230,230" fill="1" layer="-1.00" shape="1568.61,843.76 1566.33,840.16 1563.99,836.45 1542.98,849.69 1547.59,857.01 1563.87,846.74 1568.61,843.76"/>
    <poly id="247838721" type="building" color="255,230,230" fill="1" layer="-1.00" shape="1557.99,969.87 1544.92,949.07 1504.12,974.70 1512.79,988.50 1520.56,991.69 1534.58,982.88 1535.35,984.10 1557.99,969.87"/>
    <poly id="247838724" type="building" color="255,230,230" fill="1" layer="-1.00" shape="1511.37,797.47 1508.32,799.39 1503.95,792.45 1493.96,776.61 1478.06,786.63 1494.63,812.90 1513.56,800.95 1511.37,797.47"/>
    <poly id="247838733" type="building" color="255,230,230" fill="1" layer="-1.00" shape="1590.59,806.84 1602.02,802.97 1593.92,766.42 1549.59,792.60 1564.27,817.46 1575.61,810.78 1578.51,815.69 1579.94,814.64 1590.59,806.84"/>
    <poly id="247838738" type="building" color="255,230,230" fill="1" layer="-1.00" shape="1437.24,857.40 1439.18,860.47 1444.00,857.45 1457.53,878.99 1488.09,859.79 1472.63,835.16 1454.77,846.38 1443.01,853.78 1438.65,856.50 1437.24,857.40"/>
    <poly id="247838743" type="building" color="255,230,230" fill="1" layer="-1.00" shape="1540.08,994.95 1537.94,991.54 1540.68,988.40 1545.32,985.48 1549.40,984.86 1551.31,987.90 1545.06,991.83 1540.08,994.95"/>
    <poly id="247838744" type="building" color="255,230,230" fill="1" layer="-1.00" shape="1535.35,984.10 1535.87,984.94 1508.81,1002.92 1511.23,1014.27 1577.69,1002.39 1577.54,1001.60 1578.14,1001.24 1558.31,969.67 1557.99,969.87 1535.35,984.10"/>
    <poly id="247839524" type="building" color="255,230,230" fill="1" layer="-1.00" shape="1402.22,647.43 1396.14,651.29 1410.58,674.04 1416.66,670.18 1402.22,647.43"/>
    <poly id="247839528" type="building" color="255,230,230" fill="1" layer="-1.00" shape="1384.61,594.53 1378.09,598.69 1395.78,626.34 1402.29,622.17 1388.20,600.13 1384.61,594.53"/>
    <poly id="247839534" type="building" color="255,230,230" fill="1" layer="-1.00" shape="1426.02,670.09 1425.57,669.37 1425.11,668.66 1408.93,643.17 1402.22,647.43 1416.66,670.18 1419.30,674.35 1419.49,674.22 1426.02,670.09"/>
    <poly id="247839541" type="building" color="255,230,230" fill="1" layer="-1.00" shape="1415.51,638.98 1408.93,643.17 1425.11,668.66 1431.71,664.48 1415.51,638.98"/>
    <poly id="247839546" type="building" color="255,230,230" fill="1" layer="-1.00" shape="1430.84,651.48 1432.66,650.32 1422.61,634.47 1415.51,638.98 1431.71,664.48 1432.16,665.19 1437.42,661.84 1430.84,651.48"/>
    <poly id="247839548" type="building" color="255,230,230" fill="1" layer="-1.00" shape="1432.16,665.19 1425.57,669.37 1426.02,670.09 1426.67,671.11 1438.72,690.08 1441.72,694.81 1448.31,690.64 1433.03,666.57 1432.16,665.19"/>
    <poly id="247839550" type="building" color="255,230,230" fill="1" layer="-1.00" shape="1513.08,715.51 1500.45,723.51 1512.88,743.19 1525.53,735.20 1517.50,722.49 1513.08,715.51"/>
    <poly id="247839552" type="building" color="255,230,230" fill="1" layer="-1.00" shape="1429.85,629.88 1422.61,634.47 1432.66,650.32 1439.90,645.72 1429.85,629.88"/>
    <poly id="247839558" type="building" color="255,230,230" fill="1" layer="-1.00" shape="1438.89,660.91 1437.42,661.84 1432.16,665.19 1433.03,666.57 1448.31,690.64 1455.05,686.36 1438.96,661.03 1438.89,660.91"/>
    <poly id="247839562" type="building" color="255,230,230" fill="1" layer="-1.00" shape="1436.42,625.71 1429.85,629.88 1439.90,645.72 1444.41,652.81 1450.98,648.63 1447.38,642.96 1436.42,625.71"/>
    <poly id="247839573" type="building" color="255,230,230" fill="1" layer="-1.00" shape="1445.87,656.66 1438.96,661.03 1455.05,686.36 1461.95,681.98 1447.01,658.46 1445.87,656.66"/>
    <poly id="247839577" type="building" color="255,230,230" fill="1" layer="-1.00" shape="1471.61,603.37 1436.42,625.71 1447.38,642.96 1482.57,620.63 1471.61,603.37"/>
    <poly id="247839578" type="building" color="255,230,230" fill="1" layer="-1.00" shape="1524.08,718.33 1517.50,722.49 1525.53,735.20 1532.11,731.03 1528.55,725.38 1524.08,718.33"/>
    <poly id="247839593" type="building" color="255,230,230" fill="1" layer="-1.00" shape="1454.09,653.95 1447.01,658.46 1461.95,681.98 1469.03,677.48 1454.37,654.40 1454.09,653.95"/>
    <poly id="247839603" type="building" color="255,230,230" fill="1" layer="-1.00" shape="1535.63,721.62 1534.35,721.45 1531.32,716.66 1530.69,717.05 1529.15,714.61 1529.78,714.22 1528.04,711.47 1528.34,710.49 1525.08,705.33 1518.64,709.41 1521.85,714.47 1523.02,714.91 1524.73,717.61 1525.72,716.98 1527.10,719.16 1526.38,719.62 1529.14,723.98 1529.17,725.00 1528.55,725.38 1532.11,731.03 1538.88,726.76 1535.63,721.62"/>
    <poly id="247839613" type="building" color="255,230,230" fill="1" layer="-1.00" shape="1555.12,613.72 1553.12,606.16 1539.20,615.02 1531.61,619.85 1535.60,626.12 1541.67,622.26 1555.12,613.72"/>
    <poly id="247839621" type="building" color="255,230,230" fill="1" layer="-1.00" shape="1461.16,650.08 1454.37,654.40 1469.03,677.48 1475.82,673.18 1461.16,650.08"/>
    <poly id="247839627" type="building" color="255,230,230" fill="1" layer="-1.00" shape="1565.17,652.80 1557.12,657.87 1550.56,662.01 1541.73,667.58 1545.67,673.81 1567.17,660.22 1565.17,652.80"/>
    <poly id="247839630" type="building" color="255,230,230" fill="1" layer="-1.00" shape="1567.17,660.22 1545.67,673.81 1550.24,681.06 1551.04,682.31 1569.20,667.78 1567.17,660.22"/>
    <poly id="247839632" type="building" color="255,230,230" fill="1" layer="-1.00" shape="1570.69,673.33 1569.20,667.78 1551.04,682.31 1541.95,689.59 1544.31,693.15 1552.51,686.58 1553.15,687.38 1570.69,673.33"/>
    <poly id="247839635" type="building" color="255,230,230" fill="1" layer="-1.00" shape="1542.07,717.43 1540.83,717.22 1537.86,712.52 1537.06,713.04 1535.51,710.61 1536.29,710.12 1534.50,707.30 1534.85,706.21 1531.67,701.16 1525.08,705.33 1528.34,710.49 1529.58,710.49 1535.89,720.48 1535.63,721.62 1538.88,726.76 1545.38,722.65 1542.07,717.43"/>
    <poly id="247839642" type="building" color="255,230,230" fill="1" layer="-1.00" shape="1468.07,645.70 1461.16,650.08 1475.82,673.18 1482.73,668.78 1468.07,645.70"/>
    <poly id="247839645" type="building" color="255,230,230" fill="1" layer="-1.00" shape="1539.40,699.65 1536.08,701.75 1539.44,707.06 1540.32,706.49 1541.07,707.66 1537.38,710.00 1542.07,717.43 1545.38,722.65 1551.49,718.78 1541.55,703.06 1539.40,699.65"/>
    <poly id="247839649" type="building" color="255,230,230" fill="1" layer="-1.00" shape="1481.89,723.72 1451.18,743.14 1456.12,750.95 1487.07,731.90 1481.89,723.72"/>
    <poly id="247839657" type="building" color="255,230,230" fill="1" layer="-1.00" shape="1474.83,641.41 1468.07,645.70 1482.73,668.78 1489.48,664.50 1474.83,641.41"/>
    <poly id="247839659" type="building" color="255,230,230" fill="1" layer="-1.00" shape="1502.50,682.35 1497.10,685.77 1511.32,708.24 1516.71,704.83 1515.95,703.61 1502.50,682.35"/>
    <poly id="247839664" type="building" color="255,230,230" fill="1" layer="-1.00" shape="1481.89,636.92 1474.83,641.41 1489.48,664.50 1496.55,660.01 1482.67,638.15 1481.89,636.92"/>
    <poly id="247839666" type="building" color="255,230,230" fill="1" layer="-1.00" shape="1484.73,595.04 1471.61,603.37 1482.57,620.63 1485.89,625.85 1499.00,617.52 1484.87,595.27 1484.73,595.04"/>
    <poly id="247839669" type="building" color="255,230,230" fill="1" layer="-1.00" shape="1514.43,674.81 1502.50,682.35 1515.95,703.61 1527.88,696.08 1514.43,674.81"/>
    <poly id="247839670" type="building" color="255,230,230" fill="1" layer="-1.00" shape="1489.70,633.69 1482.67,638.15 1496.55,660.01 1503.57,655.55 1489.70,633.69"/>
    <poly id="247839676" type="building" color="255,230,230" fill="1" layer="-1.00" shape="1494.71,625.37 1487.37,630.02 1489.70,633.69 1503.57,655.55 1510.92,650.89 1496.72,628.52 1494.71,625.37"/>
    <poly id="247839682" type="building" color="255,230,230" fill="1" layer="-1.00" shape="1520.07,671.24 1514.43,674.81 1527.88,696.08 1528.37,696.86 1533.72,692.83 1520.07,671.24"/>
    <poly id="247839687" type="building" color="255,230,230" fill="1" layer="-1.00" shape="1503.24,624.38 1496.72,628.52 1510.92,650.89 1517.44,646.74 1503.24,624.38"/>
    <poly id="247839689" type="building" color="255,230,230" fill="1" layer="-1.00" shape="1544.42,684.10 1550.24,681.06 1545.67,673.81 1541.73,667.58 1537.63,661.08 1537.20,660.41 1520.07,671.24 1533.72,692.83 1534.62,692.09 1540.45,687.34 1544.42,684.10"/>
    <poly id="247839704" type="building" color="255,230,230" fill="1" layer="-1.00" shape="1508.10,616.66 1501.14,621.08 1503.24,624.38 1517.44,646.74 1524.40,642.33 1509.19,618.36 1508.10,616.66"/>
    <poly id="247839706" type="building" color="255,230,230" fill="1" layer="-1.00" shape="1546.46,655.51 1537.63,661.08 1541.73,667.58 1550.56,662.01 1546.46,655.51"/>
    <poly id="247839711" type="building" color="255,230,230" fill="1" layer="-1.00" shape="1515.95,614.07 1509.19,618.36 1524.40,642.33 1531.16,638.03 1517.91,617.16 1515.95,614.07"/>
    <poly id="247839713" type="building" color="255,230,230" fill="1" layer="-1.00" shape="1529.44,620.97 1534.52,617.74 1530.35,611.17 1526.98,613.32 1526.10,611.96 1524.77,612.81 1517.91,617.16 1531.16,638.03 1537.66,633.91 1533.55,627.42 1529.44,620.97"/>
    <poly id="247839728" type="building" color="255,230,230" fill="1" layer="-1.00" shape="1426.67,671.11 1419.79,675.49 1431.84,694.45 1438.72,690.08 1426.67,671.11"/>
    <poly id="247839734" type="building" color="255,230,230" fill="1" layer="-1.00" shape="1456.12,750.95 1468.82,771.04 1499.50,751.58 1487.07,731.90 1456.12,750.95"/>
    <poly id="247839739" type="building" color="255,230,230" fill="1" layer="-1.00" shape="1378.09,598.69 1368.92,604.56 1386.61,632.21 1395.78,626.34 1378.09,598.69"/>
    <poly id="247839742" type="building" color="255,230,230" fill="1" layer="-1.00" shape="1553.02,651.37 1546.46,655.51 1550.56,662.01 1557.12,657.87 1553.02,651.37"/>
    <poly id="247839752" type="building" color="255,230,230" fill="1" layer="-1.00" shape="1533.55,627.42 1537.66,633.91 1545.79,628.75 1541.67,622.26 1535.60,626.12 1533.55,627.42"/>
    <poly id="247839756" type="building" color="255,230,230" fill="1" layer="-1.00" shape="1572.21,678.99 1570.69,673.33 1553.15,687.38 1555.64,692.00 1572.21,678.99"/>
    <poly id="247839764" type="building" color="255,230,230" fill="1" layer="-1.00" shape="1540.45,687.34 1534.62,692.09 1539.40,699.65 1541.55,703.06 1547.69,698.24 1544.31,693.15 1541.95,689.59 1540.45,687.34"/>
    <poly id="247839766" type="building" color="255,230,230" fill="1" layer="-1.00" shape="1541.55,703.06 1551.49,718.78 1578.31,702.14 1572.21,678.99 1555.64,692.00 1547.69,698.24 1541.55,703.06"/>
    <poly id="247842669" type="building" color="255,230,230" fill="1" layer="-1.00" shape="1373.94,881.68 1371.34,883.30 1369.79,880.79 1372.29,879.24 1361.23,861.47 1330.23,880.74 1328.58,887.29 1320.25,887.29 1317.69,890.23 1313.11,897.74 1316.71,903.52 1324.69,904.67 1322.67,914.04 1338.12,904.42 1337.89,904.04 1346.79,898.51 1350.06,903.78 1354.42,901.07 1353.44,899.50 1376.21,885.34 1373.94,881.68"/>
    <poly id="247842670" type="building" color="255,230,230" fill="1" layer="-1.00" shape="1393.13,968.93 1395.03,971.96 1382.24,980.03 1380.25,976.88 1367.52,984.90 1382.04,1007.92 1432.59,976.06 1418.15,953.16 1393.13,968.93"/>
    <poly id="247842671" type="building" color="255,230,230" fill="1" layer="-1.00" shape="1418.15,953.16 1403.40,929.75 1366.00,953.32 1378.67,973.43 1379.44,972.95 1380.43,974.52 1384.62,971.88 1384.70,969.64 1391.04,965.63 1393.13,968.93 1418.15,953.16"/>
    <poly id="247842672" type="building" color="255,230,230" fill="1" layer="-1.00" shape="1357.68,911.84 1369.37,904.58 1369.95,905.51 1374.22,902.85 1374.73,903.65 1384.36,897.66 1376.56,885.12 1376.21,885.34 1353.44,899.50 1354.42,901.07 1350.06,903.78 1346.79,898.51 1337.89,904.04 1338.12,904.42 1322.67,914.04 1332.84,930.40 1359.08,914.08 1357.68,911.84"/>
    <poly id="247842673" type="building" color="255,230,230" fill="1" layer="-1.00" shape="1427.73,1068.39 1451.59,1107.27 1476.34,1092.08 1481.94,1101.19 1503.11,1088.21 1473.65,1040.21 1427.73,1068.39"/>
    <poly id="247842674" type="building" color="255,230,230" fill="1" layer="-1.00" shape="1359.08,914.08 1332.84,930.40 1331.56,931.19 1340.26,945.18 1367.78,928.06 1368.86,923.98 1359.08,914.08"/>
    <poly id="247842675" type="building" color="255,230,230" fill="1" layer="-1.00" shape="1380.68,976.61 1378.67,973.43 1366.00,953.32 1352.85,961.62 1367.52,984.90 1380.25,976.88 1380.68,976.61"/>
    <poly id="247842676" type="building" color="255,230,230" fill="1" layer="-1.00" shape="1443.86,991.67 1427.36,1001.80 1436.58,1016.83 1407.18,1034.91 1427.26,1067.64 1427.73,1068.39 1473.65,1040.21 1443.86,991.67"/>
    <poly id="247842677" type="building" color="255,230,230" fill="1" layer="-1.00" shape="1374.73,903.65 1374.22,902.85 1369.95,905.51 1369.37,904.58 1357.68,911.84 1359.08,914.08 1368.86,923.98 1392.46,910.68 1384.36,897.66 1374.73,903.65"/>
    <poly id="247842678" type="building" color="255,230,230" fill="1" layer="-1.00" shape="1323.35,863.52 1324.09,864.71 1354.06,846.04 1340.19,823.77 1338.70,824.69 1317.70,791.01 1292.87,806.49 1293.29,807.18 1266.10,824.13 1299.79,878.19 1301.43,877.17 1323.35,863.52"/>
    <poly id="247842679" type="building" color="255,230,230" fill="1" layer="-1.00" shape="1314.71,838.95 1317.66,843.50 1312.75,846.68 1317.28,853.67 1303.25,862.76 1295.78,851.21 1307.52,843.61 1314.71,838.95"/>
    <poly id="247842911" type="building" color="255,230,230" fill="1" layer="-1.00" shape="1327.02,630.80 1307.54,643.16 1325.63,671.67 1345.11,659.31 1327.02,630.80"/>
    <poly id="247842912" type="building" color="255,230,230" fill="1" layer="-1.00" shape="1375.61,679.54 1369.11,683.69 1378.20,697.98 1378.86,699.03 1385.39,694.87 1375.61,679.54"/>
    <poly id="247842913" type="building" color="255,230,230" fill="1" layer="-1.00" shape="1359.19,711.53 1357.96,709.58 1342.92,686.05 1336.48,690.16 1352.75,715.64 1357.05,712.89 1359.19,711.53"/>